@<TRIPOS>MOLECULE
RES
12 10 1 0 1
SMALL
NO_CHARGES
@<TRIPOS>CRYSIN
   22.4703     7.5453    10.4721    90.0000    90.0000    90.0000  1  1
@<TRIPOS>ATOM
       1 CH2             6.2183     2.6861     2.9633 CH2              1 RES     
       2 CH2             4.9628     1.1733     2.0998 CH2              1 RES     
       3 CH3             4.4804     2.7251     0.7986 CH3              1 RES     
       4 CH2             6.4829     0.8910     4.1059 CH2              1 RES     
       5 CH2             7.7384     2.4037     4.9695 CH2              1 RES     
       6 CH3             8.2208     0.8520     6.2707 CH3              1 RES     
       7 CH2            18.2859     2.2300     3.4042 CH2              1 RES     
       8 CH2            18.7643     2.9459     5.3711 CH2              1 RES     
       9 CH3            16.7242     3.3589     5.4028 CH3              1 RES     
      10 CH2            20.3890     1.9424     3.7073 CH2              1 RES     
      11 CH2            19.9106     1.2266     1.7403 CH2              1 RES     
      12 CH3            21.9507     0.8135     1.7086 CH3              1 RES     
@<TRIPOS>BOND
       1        8        9 1
       2        3        2 1
       3        7        8 1
       4        5        4 1
       5        5        6 1
       6       11       12 1
       7       10       11 1
       8        7       10 1
       9        4        1 1
      10        1        2 1
@<TRIPOS>SUBSTRUCTURE
       1 RES             1 RESIDUE    0 **** ROOT      0
