@<TRIPOS>MOLECULE
RES
40 38 1 0 1
SMALL
NO_CHARGES
@<TRIPOS>CRYSIN
   23.0360     9.8500    11.7050    90.0000    90.0000    90.0000  1  1
@<TRIPOS>ATOM
       1 C            5.9010     2.3940     3.3550 C             1 RES     
       2 H            6.3480     3.3080     3.7460 H             1 RES     
       3 H            4.9340     2.3010     3.8510 H             1 RES     
       4 C            5.6920     2.5580     1.8390 C             1 RES     
       5 H            6.6480     2.4700     1.3210 H             1 RES     
       6 H            5.3380     3.5700     1.6370 H             1 RES     
       7 C            4.6930     1.5560     1.2440 C             1 RES     
       8 H            3.7100     1.6540     1.7070 H             1 RES     
       9 H            5.0270     0.5270     1.3790 H             1 RES     
      10 H            4.5710     1.7220     0.1730 H             1 RES     
      11 C            6.7920     1.1930     3.7200 C             1 RES     
      12 H            6.3390     0.2780     3.3380 H             1 RES     
      13 H            7.7540     1.2800     3.2130 H             1 RES     
      14 C            7.0170     1.0360     5.2340 C             1 RES     
      15 H            6.0720     1.1580     5.7650 H             1 RES     
      16 H            7.3420     0.0150     5.4390 H             1 RES     
      17 C            8.0550     2.0110     5.8050 C             1 RES     
      18 H            8.1760     1.8620     6.8780 H             1 RES     
      19 H            7.7600     3.0490     5.6480 H             1 RES     
      20 H            9.0310     1.8640     5.3400 H             1 RES     
      21 C           20.1410     2.5990     3.3370 C             1 RES     
      22 H           20.7540     3.0010     4.1490 H             1 RES     
      23 H           19.7780     3.4980     2.8300 H             1 RES     
      24 C           21.0300     1.7670     2.3660 C             1 RES     
      25 H           21.3200     1.2770     3.2980 H             1 RES     
      26 H           20.1490     1.8630     1.7280 H             1 RES     
      27 C           20.8740     0.2850     1.9260 C             1 RES     
      28 H           20.0000    -0.1990     2.3670 H             1 RES     
      29 H           21.7460    -0.3200     2.1900 H             1 RES     
      30 H           20.7810     0.1870     0.8410 H             1 RES     
      31 C           18.9330     1.8450     3.9410 C             1 RES     
      32 H           18.2010     1.6430     3.1580 H             1 RES     
      33 H           19.2540     0.8690     4.3070 H             1 RES     
      34 C           18.2560     2.5930     5.1010 C             1 RES     
      35 H           17.6380     1.8900     5.6620 H             1 RES     
      36 H           19.0090     2.9500     5.8050 H             1 RES     
      37 C           17.3790     3.7650     4.6430 C             1 RES     
      38 H           17.9680     4.5300     4.1370 H             1 RES     
      39 H           16.8890     4.2360     5.4950 H             1 RES     
      40 H           16.6010     3.4310     3.9560 H             1 RES     
@<TRIPOS>BOND
       1       26       24 1
       2       11        1 1
       3       35       34 1
       4       38       37 1
       5        5        4 1
       6       10        7 1
       7       17       14 1
       8       37       34 1
       9       13       11 1
      10       28       27 1
      11       12       11 1
      12       37       40 1
      13        2        1 1
      14       15       14 1
      15       32       31 1
      16       23       21 1
      17       18       17 1
      18       31       21 1
      19       29       27 1
      20        8        7 1
      21        7        4 1
      22       16       14 1
      23       14       11 1
      24       39       37 1
      25       33       31 1
      26        9        7 1
      27       34       31 1
      28       24       21 1
      29        3        1 1
      30       20       17 1
      31        4        1 1
      32       25       24 1
      33       27       24 1
      34       30       27 1
      35       36       34 1
      36        6        4 1
      37       19       17 1
      38       22       21 1
@<TRIPOS>SUBSTRUCTURE
       1 RES             1 RESIDUE    0 **** ROOT      0
