@<TRIPOS>MOLECULE
RES
12 10 1 0 1
SMALL
NO_CHARGES
@<TRIPOS>CRYSIN
   21.8610     7.2230     9.8030    90.0000    90.0000    90.0000  1  1
@<TRIPOS>ATOM
       1 _CH3         4.7010     2.9420     1.1300  CH3          1 RES     
       2 _CH2         5.8950     2.4530     1.9720  CH2          1 RES     
       3 _CH2         5.5210     1.4020     3.0400  CH2          1 RES     
       4 _CH3         8.2690     1.2010     5.9330  CH3          1 RES     
       5 _CH2         6.6720     0.8750     3.9240  CH2          1 RES     
       6 _CH2         7.1140     1.7790     5.0940  CH2          1 RES     
       7 _CH3        17.1230     3.0980     5.2130  CH3          1 RES     
       8 _CH2        17.4760     2.8280     3.7350  CH2          1 RES     
       9 _CH2        18.6220     1.8270     3.4720  CH2          1 RES     
      10 _CH3        21.5620     1.1000     1.8880  CH3          1 RES     
      11 _CH2        21.2090     1.3620     3.3670  CH2          1 RES     
      12 _CH2        20.0640     2.3620     3.6370  CH2          1 RES     
@<TRIPOS>BOND
       1        9       12 1
       2        7        8 1
       3       11       12 1
       4        5        3 1
       5        3        2 1
       6        6        5 1
       7       10       11 1
       8        8        9 1
       9        6        4 1
      10        1        2 1
@<TRIPOS>SUBSTRUCTURE
       1 RES             1 RESIDUE    0 **** ROOT      0
