@<TRIPOS>MOLECULE
RES
4 3 1 0 1
SMALL
NO_CHARGES
@<TRIPOS>CRYSIN
    6.8675     6.9374     5.0000    90.0000    90.0000    90.0000  1  1
@<TRIPOS>ATOM
       1 C            0.0000     0.0000     0.0000 C             1 RES     
       2 O            0.0000     1.2300     0.0000 O             1 RES     
       3 OA           1.1321    -0.7074    -0.0000 OA            1 RES     
       4 H            1.8675    -0.0904    -0.0000 H             1 RES     
@<TRIPOS>BOND
       1        3        1 1
       2        1        2 1
       3        3        4 1
@<TRIPOS>SUBSTRUCTURE
       1 RES             1 RESIDUE    0 **** ROOT      0
