@<TRIPOS>MOLECULE
RES
142 141 1 0 1
SMALL
NO_CHARGES
@<TRIPOS>CRYSIN
   24.9908    19.7445    34.9701    90.0000    90.0000    90.0000  1  1
@<TRIPOS>ATOM
       1 N           -0.0107     0.0229     0.0368 N             1 RES     
       2 C            0.1606     1.4848     0.2125 C             1 RES     
       3 H            0.8377     1.9138    -0.5562 H             1 RES     
       4 H            0.6148     1.7179     1.2019 H             1 RES     
       5 H           -0.8175     2.0122     0.1522 H             1 RES     
       6 C            1.3134    -0.6410     0.0945 C             1 RES     
       7 H            1.2168    -1.7395    -0.0561 H             1 RES     
       8 H            1.8024    -0.4723     1.0803 H             1 RES     
       9 H            2.0064    -0.2416    -0.6759 H             1 RES     
      10 C           -0.8377    -0.4877     1.1569 C             1 RES     
      11 H           -0.3586    -0.2825     2.1409 H             1 RES     
      12 H           -0.9859    -1.5884     1.0779 H             1 RES     
      13 H           -1.8427    -0.0083     1.1657 H             1 RES     
      14 C           -0.7200    -0.2907    -1.2408 C             1 RES     
      15 H           -1.7284     0.1815    -1.2436 H             1 RES     
      16 H           -0.8766    -1.3895    -1.3308 H             1 RES     
      17 C           -0.0068     0.1671    -2.5212 C             1 RES     
      18 H            0.9695    -0.3365    -2.6699 H             1 RES     
      19 H            0.0990     1.2689    -2.5808 H             1 RES     
      20 P           -1.6248     0.9901    -4.2354 P             1 RES     
      21 OA          -2.3383     0.6265    -5.6206 OA            1 RES     
      22 OA          -0.6498    -0.2041    -3.8072 OA            1 RES     
      23 OM          -0.7662     2.3157    -4.4914 OM            1 RES     
      24 OM          -2.7851     1.1502    -3.1455 OM            1 RES     
      25 C           -3.2328     1.7541    -5.9859 C             1 RES     
      26 H           -2.6436     2.6648    -6.0936 H             1 RES     
      27 H           -3.9788     1.8939    -5.2035 H             1 RES     
      28 C           -3.4829     0.0600    -7.8281 C             1 RES     
      29 H           -2.4039     0.0686    -7.9824 H             1 RES     
      30 H           -3.7391    -0.7023    -7.0923 H             1 RES     
      31 C           -3.9391     1.4394    -7.3177 C             1 RES     
      32 H           -5.0180     1.4308    -7.1634 H             1 RES     
      33 OE          -4.1570    -0.2404    -9.0994 OE            1 RES     
      34 C           -3.4790    -1.5715    -9.2352 C             1 RES     
      35 O           -2.6746    -2.0295    -8.4252 O             1 RES     
      36 C           -4.1106    -1.9074   -10.4734 C             1 RES     
      37 H           -4.6856    -2.8252   -10.3505 H             1 RES     
      38 H           -3.3504    -2.0543   -11.2406 H             1 RES     
      39 C           -5.0524    -0.7648   -10.8966 C             1 RES     
      40 H           -4.4774     0.1530   -11.0195 H             1 RES     
      41 H           -5.8126    -0.6179   -10.1294 H             1 RES     
      42 C           -5.7326    -1.1264   -12.2301 C             1 RES     
      43 H           -6.3076    -2.0442   -12.1072 H             1 RES     
      44 H           -4.9724    -1.2733   -12.9973 H             1 RES     
      45 C           -6.6744     0.0162   -12.6533 C             1 RES     
      46 H           -6.0993     0.9340   -12.7762 H             1 RES     
      47 H           -7.4346     0.1631   -11.8860 H             1 RES     
      48 C           -7.3545    -0.3455   -13.9867 C             1 RES     
      49 H           -7.9296    -1.2633   -13.8638 H             1 RES     
      50 H           -6.5943    -0.4924   -14.7539 H             1 RES     
      51 C           -8.2963     0.7971   -14.4099 C             1 RES     
      52 H           -7.7213     1.7149   -14.5328 H             1 RES     
      53 H           -9.0565     0.9440   -13.6427 H             1 RES     
      54 C           -8.9765     0.4354   -15.7434 C             1 RES     
      55 H           -9.5515    -0.4824   -15.6205 H             1 RES     
      56 H           -8.2163     0.2885   -16.5106 H             1 RES     
      57 C           -9.9183     1.5780   -16.1666 C             1 RES     
      58 H           -9.3433     2.4958   -16.2895 H             1 RES     
      59 H          -10.6785     1.7249   -15.3994 H             1 RES     
      60 C          -10.5985     1.2164   -17.5000 C             1 RES     
      61 H          -11.1735     0.2986   -17.3771 H             1 RES     
      62 H           -9.8383     1.0695   -18.2673 H             1 RES     
      63 C          -11.5403     2.3590   -17.9232 C             1 RES     
      64 H          -10.9653     3.2768   -18.0461 H             1 RES     
      65 H          -12.3005     2.5059   -17.1560 H             1 RES     
      66 C          -12.2205     1.9973   -19.2567 C             1 RES     
      67 H          -12.7955     1.0795   -19.1338 H             1 RES     
      68 H          -11.4603     1.8504   -20.0239 H             1 RES     
      69 C          -13.1623     3.1399   -19.6799 C             1 RES     
      70 H          -12.5873     4.0577   -19.8028 H             1 RES     
      71 H          -13.9225     3.2868   -18.9127 H             1 RES     
      72 C          -13.8424     2.7782   -21.0134 C             1 RES     
      73 H          -14.4175     1.8604   -20.8904 H             1 RES     
      74 H          -13.0823     2.6313   -21.7806 H             1 RES     
      75 C          -14.7842     3.9208   -21.4365 C             1 RES     
      76 H          -14.2092     4.8386   -21.5595 H             1 RES     
      77 H          -15.5444     4.0677   -20.6693 H             1 RES     
      78 C          -15.4644     3.5592   -22.7700 C             1 RES     
      79 H          -16.0394     2.6414   -22.6471 H             1 RES     
      80 H          -14.7042     3.4122   -23.5372 H             1 RES     
      81 C          -16.4062     4.7018   -23.1932 C             1 RES     
      82 H          -15.8312     5.6195   -23.3161 H             1 RES     
      83 H          -17.1664     4.8487   -22.4260 H             1 RES     
      84 C          -17.0555     4.3565   -24.4661 C             1 RES     
      85 H          -16.2530     4.8199   -25.0011 H             1 RES     
      86 H          -17.9844     4.5896   -24.9436 H             1 RES     
      87 H          -16.9143     3.2953   -24.4593 H             1 RES     
      88 OE          -3.6064     2.4290    -8.2729 OE            1 RES     
      89 C           -2.6305     3.1010    -7.3531 C             1 RES     
      90 O           -2.3812     2.7270    -6.2082 O             1 RES     
      91 C           -2.2626     4.1210    -8.2854 C             1 RES     
      92 H           -1.1935     4.0590    -8.4883 H             1 RES     
      93 H           -2.4971     5.0989    -7.8649 H             1 RES     
      94 C           -3.0458     3.9254    -9.5969 C             1 RES     
      95 H           -4.1150     3.9875    -9.3940 H             1 RES     
      96 H           -2.8114     2.9475   -10.0174 H             1 RES     
      97 C           -2.6497     5.0239   -10.6009 C             1 RES     
      98 H           -1.5806     4.9619   -10.8038 H             1 RES     
      99 H           -2.8841     6.0018   -10.1804 H             1 RES     
     100 C           -3.4329     4.8283   -11.9124 C             1 RES     
     101 H           -4.5021     4.8904   -11.7095 H             1 RES     
     102 H           -3.1985     3.8504   -12.3329 H             1 RES     
     103 C           -3.0368     5.9268   -12.9164 C             1 RES     
     104 H           -1.9676     5.8648   -13.1193 H             1 RES     
     105 H           -3.2712     6.9047   -12.4959 H             1 RES     
     106 C           -3.8200     5.7313   -14.2279 C             1 RES     
     107 H           -4.8891     5.7933   -14.0250 H             1 RES     
     108 H           -3.5856     4.7533   -14.6484 H             1 RES     
     109 C           -3.4238     6.8297   -15.2319 C             1 RES     
     110 H           -2.3547     6.7677   -15.4348 H             1 RES     
     111 H           -3.6582     7.8076   -14.8114 H             1 RES     
     112 C           -4.2070     6.6342   -16.5433 C             1 RES     
     113 H           -5.2762     6.6962   -16.3404 H             1 RES     
     114 H           -3.9726     5.6562   -16.9639 H             1 RES     
     115 C           -3.8109     7.7326   -17.5474 C             1 RES     
     116 H           -2.7417     7.6706   -17.7503 H             1 RES     
     117 H           -4.0453     8.7105   -17.1268 H             1 RES     
     118 C           -4.5941     7.5371   -18.8588 C             1 RES     
     119 H           -5.6633     7.5991   -18.6559 H             1 RES     
     120 H           -4.3597     6.5591   -19.2793 H             1 RES     
     121 C           -4.1980     8.6355   -19.8628 C             1 RES     
     122 H           -3.1288     8.5735   -20.0657 H             1 RES     
     123 H           -4.4324     9.6134   -19.4423 H             1 RES     
     124 C           -4.9812     8.4400   -21.1743 C             1 RES     
     125 H           -6.0503     8.5020   -20.9714 H             1 RES     
     126 H           -4.7468     7.4621   -21.5948 H             1 RES     
     127 C           -4.5850     9.5384   -22.1783 C             1 RES     
     128 H           -3.5159     9.4764   -22.3812 H             1 RES     
     129 H           -4.8194    10.5163   -21.7578 H             1 RES     
     130 C           -5.3682     9.3429   -23.4898 C             1 RES     
     131 H           -6.4374     9.4049   -23.2869 H             1 RES     
     132 H           -5.1338     8.3650   -23.9103 H             1 RES     
     133 C           -4.9721    10.4413   -24.4938 C             1 RES     
     134 H           -3.9029    10.3793   -24.6967 H             1 RES     
     135 H           -5.2065    11.4192   -24.0733 H             1 RES     
     136 C           -5.7553    10.2458   -25.8053 C             1 RES     
     137 H           -6.8245    10.3078   -25.6024 H             1 RES     
     138 H           -5.5209     9.2679   -26.2258 H             1 RES     
     139 C           -5.3772    11.2943   -26.7636 C             1 RES     
     140 H           -6.1606    11.9193   -26.3890 H             1 RES     
     141 H           -5.3297    11.3814   -27.8292 H             1 RES     
     142 H           -4.4430    11.5995   -26.3388 H             1 RES     
@<TRIPOS>BOND
       1       42       43 1
       2      112      109 1
       3      109      106 1
       4       95       94 1
       5       31       32 1
       6       54       55 1
       7       34       35 1
       8      133      134 1
       9       17       18 1
      10       17       22 1
      11       33       34 1
      12      123      121 1
      13      131      130 1
      14       90       89 1
      15       99       97 1
      16       10        1 1
      17       39       40 1
      18       28       30 1
      19       10       11 1
      20      130      127 1
      21       63       65 1
      22        2        3 1
      23       87       84 1
      24      139      140 1
      25       36       34 1
      26      136      133 1
      27       45       48 1
      28      111      109 1
      29       48       49 1
      30      110      109 1
      31       10       12 1
      32       36       37 1
      33      136      139 1
      34       51       53 1
      35       57       58 1
      36      136      137 1
      37       75       76 1
      38       66       68 1
      39      121      118 1
      40       60       62 1
      41      115      112 1
      42       92       91 1
      43      119      118 1
      44       66       67 1
      45        6        8 1
      46        6        1 1
      47       97      100 1
      48      133      130 1
      49      105      103 1
      50       86       84 1
      51       96       94 1
      52       72       75 1
      53       69       72 1
      54        6        7 1
      55       14        1 1
      56       54       56 1
      57      133      135 1
      58        2        4 1
      59       78       79 1
      60       81       83 1
      61       98       97 1
      62       25       31 1
      63      124      121 1
      64       25       26 1
      65      122      121 1
      66       69       70 1
      67       14       15 1
      68       36       38 1
      69        6        9 1
      70       75       78 1
      71      108      106 1
      72      114      112 1
      73      125      124 1
      74      116      115 1
      75       84       81 1
      76      127      128 1
      77       60       61 1
      78      102      100 1
      79       48       50 1
      80        1        2 1
      81       72       73 1
      82      101      100 1
      83       45       46 1
      84       93       91 1
      85      118      115 1
      86      117      115 1
      87      113      112 1
      88       51       52 1
      89      103      100 1
      90       28       31 1
      91       63       64 1
      92       45       47 1
      93      142      139 1
      94       24       20 1
      95       54       57 1
      96       63       66 1
      97       28       33 1
      98      126      124 1
      99       36       39 1
     100       60       57 1
     101       14       16 1
     102       81       82 1
     103       91       89 1
     104       78       80 1
     105       89       88 1
     106      124      127 1
     107       39       42 1
     108       97       94 1
     109       39       41 1
     110       78       81 1
     111       85       84 1
     112      141      139 1
     113       75       77 1
     114      104      103 1
     115      107      106 1
     116       42       45 1
     117       20       22 1
     118       28       29 1
     119       60       63 1
     120       48       51 1
     121       72       74 1
     122       42       44 1
     123      136      138 1
     124       57       59 1
     125        2        5 1
     126       88       31 1
     127       94       91 1
     128      132      130 1
     129      127      129 1
     130       25       21 1
     131       23       20 1
     132       25       27 1
     133      120      118 1
     134       20       21 1
     135       66       69 1
     136       14       17 1
     137       17       19 1
     138       51       54 1
     139       69       71 1
     140       10       13 1
     141      106      103 1
@<TRIPOS>SUBSTRUCTURE
       1 RES             1 RESIDUE    0 **** ROOT      0
