@<TRIPOS>MOLECULE
RES
27 26 1 0 1
SMALL
NO_CHARGES
@<TRIPOS>CRYSIN
   10.9750     9.4015    13.2337    90.0000    90.0000    90.0000  1  1
@<TRIPOS>ATOM
       1 N           -0.0057     0.0091     0.0586 N             1 RES     
       2 C            0.1687     1.4709     0.2315 C             1 RES     
       3 H            0.8507     1.8962    -0.5348 H             1 RES     
       4 H            0.6186     1.7052     1.2226 H             1 RES     
       5 H           -0.8077     2.0008     0.1652 H             1 RES     
       6 C            1.3163    -0.6583     0.1244 C             1 RES     
       7 H            1.2175    -1.7569    -0.0240 H             1 RES     
       8 H            1.8009    -0.4885     1.1122 H             1 RES     
       9 H            2.0142    -0.2626    -0.6435 H             1 RES     
      10 C           -0.8396    -0.4966     1.1758 C             1 RES     
      11 H           -0.3647    -0.2903     2.1616 H             1 RES     
      12 H           -0.9903    -1.5971     1.0988 H             1 RES     
      13 H           -1.8433    -0.0145     1.1785 H             1 RES     
      14 C           -0.7095    -0.3058    -1.2218 C             1 RES     
      15 H           -1.7166     0.1691    -1.2306 H             1 RES     
      16 H           -0.8687    -1.4043    -1.3098 H             1 RES     
      17 C            0.0112     0.1469    -2.4997 C             1 RES     
      18 H            0.9869    -0.3596    -2.6424 H             1 RES     
      19 H            0.1203     1.2484    -2.5615 H             1 RES     
      20 P           -1.6068     0.9699    -4.2139 P             1 RES     
      21 OA          -2.3203     0.6063    -5.5991 OA            1 RES     
      22 OA          -0.6318    -0.2244    -3.7857 OA            1 RES     
      23 OM          -0.7482     2.2955    -4.4699 OM            1 RES     
      24 OM          -2.7671     1.1300    -3.1240 OM            1 RES     
      25 C           -3.2148     1.7339    -5.9644 C             1 RES     
      26 H           -2.6256     2.6446    -6.0721 H             1 RES     
      27 H           -3.9608     1.8737    -5.1820 H             1 RES     
@<TRIPOS>BOND
       1        6        8 1
       2       21       20 1
       3       20       22 1
       4       17       22 1
       5        6        1 1
       6       10       12 1
       7        6        7 1
       8       14       15 1
       9       10       11 1
      10       23       20 1
      11       14       17 1
      12       17       18 1
      13        6        9 1
      14       26       25 1
      15       27       25 1
      16       24       20 1
      17        2        4 1
      18       25       21 1
      19       10       13 1
      20        2        3 1
      21       14       16 1
      22        2        5 1
      23       17       19 1
      24       10        1 1
      25        2        1 1
      26       14        1 1
@<TRIPOS>SUBSTRUCTURE
       1 RES             1 RESIDUE    0 **** ROOT      0
