@<TRIPOS>MOLECULE
RES
5 4 1 0 1
SMALL
NO_CHARGES
@<TRIPOS>CRYSIN
    7.6133     6.7875     7.6918    90.0000    90.0000    90.0000  1  1
@<TRIPOS>ATOM
       1 P            1.3066     0.9234     0.0000 P             1 RES     
       2 O            2.6133     0.0000     0.0000 O             1 RES     
       3 O            0.0000     0.0000     0.0000 O             1 RES     
       4 O            1.3509     1.7875     1.3459 O             1 RES     
       5 O            1.3509     1.7875    -1.3459 O             1 RES     
@<TRIPOS>BOND
       1        1        5 1
       2        1        3 1
       3        1        2 1
       4        4        1 1
@<TRIPOS>SUBSTRUCTURE
       1 RES             1 RESIDUE    0 **** ROOT      0
