@<TRIPOS>MOLECULE
RES
8 7 1 0 1
SMALL
NO_CHARGES
@<TRIPOS>CRYSIN
    7.1400     7.9380     6.6460    90.0000    90.0000    90.0000  1  1
@<TRIPOS>ATOM
       1 C            0.0000    -1.4000    -0.0000 C             1 RES     
       2 H           -1.0700    -1.4000    -0.0000 H             1 RES     
       3 H            0.3570    -2.1690     0.6530 H             1 RES     
       4 H            0.3570    -1.5810    -0.9930 H             1 RES     
       5 C            0.0000     0.0000     0.0000 C             1 RES     
       6 H            1.0700     0.0000     0.0000 H             1 RES     
       7 H           -0.3570     0.7690     0.6530 H             1 RES     
       8 H           -0.3570     0.1810    -0.9930 H             1 RES     
@<TRIPOS>BOND
       1        6        5 1
       2        8        5 1
       3        3        1 1
       4        1        2 1
       5        7        5 1
       6        1        5 1
       7        4        1 1
@<TRIPOS>SUBSTRUCTURE
       1 RES             1 RESIDUE    0 **** ROOT      0
