@<TRIPOS>MOLECULE
RES
18 17 1 0 1
SMALL
NO_CHARGES
@<TRIPOS>CRYSIN
    6.0930     5.8996    25.2294    90.0000    90.0000    90.0000  1  1
@<TRIPOS>ATOM
       1 CH3         -0.0000    -0.0000   -19.9873 CH3           1 RES     
       2 CH2          0.8445    -0.0722   -18.7862 CH2           1 RES     
       3 CH2         -0.0420     0.0036   -17.5292 CH2           1 RES     
       4 CH2          0.8426    -0.0720   -16.2710 CH2           1 RES     
       5 CH2         -0.0438     0.0037   -15.0140 CH2           1 RES     
       6 CH2          0.8408    -0.0719   -13.7557 CH2           1 RES     
       7 CH2         -0.0456     0.0039   -12.4987 CH2           1 RES     
       8 CH2          0.8390    -0.0717   -11.2405 CH2           1 RES     
       9 CH2         -0.0474     0.0041    -9.9835 CH2           1 RES     
      10 CH2          0.8372    -0.0716    -8.7252 CH2           1 RES     
      11 CH2         -0.0493     0.0042    -7.4682 CH2           1 RES     
      12 CH2          0.8354    -0.0714    -6.2100 CH2           1 RES     
      13 CH2         -0.0511     0.0044    -4.9530 CH2           1 RES     
      14 CH2          0.8336    -0.0713    -3.6947 CH2           1 RES     
      15 CH2         -0.0529     0.0045    -2.4377 CH2           1 RES     
      16 CH2          0.8318    -0.0711    -1.1794 CH2           1 RES     
      17 OA           0.0000     0.0000     0.0000 OA            1 RES     
      18 H           -0.2485    -0.8951     0.2421 H             1 RES     
@<TRIPOS>BOND
       1       16       17 1
       2       17       18 1
       3        9       10 1
       4        6        7 1
       5       12       13 1
       6       12       11 1
       7       15       16 1
       8        8        9 1
       9        2        1 1
      10       14       15 1
      11       10       11 1
      12       13       14 1
      13        7        8 1
      14        3        4 1
      15        4        5 1
      16        2        3 1
      17        5        6 1
@<TRIPOS>SUBSTRUCTURE
       1 RES             1 RESIDUE    0 **** ROOT      0
