@<TRIPOS>MOLECULE
RES
50 49 1 0 1
SMALL
NO_CHARGES
@<TRIPOS>CRYSIN
   11.2118    11.9528    32.9359    90.0000    90.0000    90.0000  1  1
@<TRIPOS>ATOM
       1 CH3          3.3039    -0.7817    12.0806 CH3           1 RES     
       2 CH3          3.5617    -3.0831    11.6681 CH3           1 RES     
       3 CH3          1.9196    -2.3312    12.9015 CH3           1 RES     
       4 NL           2.7139    -2.0682    11.8765 NL            1 RES     
       5 CH2          1.8099    -1.9704    10.8221 CH2           1 RES     
       6 CH2          2.7631    -1.6660     9.6514 CH2           1 RES     
       7 OA           1.9790    -1.5203     8.3988 OA            1 RES     
       8 P            1.8668    -2.9626     7.7152 P             1 RES     
       9 OM           3.3590    -3.4336     7.3813 OM            1 RES     
      10 OM           1.0882    -3.9046     8.7479 OM            1 RES     
      11 OA           1.0264    -2.8468     6.3586 OA            1 RES     
      12 CH2          0.9429    -4.2003     5.7535 CH2           1 RES     
      13 CH1          0.8629    -4.1535     4.3984 CH1           1 RES     
      14 OE           1.6361    -4.3572     3.1649 OE            1 RES     
      15 C            2.5118    -5.4008     3.7925 C             1 RES     
      16 O            2.4157    -5.7819     4.9580 O             1 RES     
      17 CH2          3.2373    -5.9022     2.6984 CH2           1 RES     
      18 CH2          2.9355    -5.2691     1.3274 CH2           1 RES     
      19 CH2          3.6669    -6.0574     0.2250 CH2           1 RES     
      20 CH2          3.3652    -5.4243    -1.1460 CH2           1 RES     
      21 CH2          4.0966    -6.2126    -2.2484 CH2           1 RES     
      22 CH2          3.7949    -5.5795    -3.6194 CH2           1 RES     
      23 CH2          4.5263    -6.3678    -4.7218 CH2           1 RES     
      24 CH2          4.2246    -5.7347    -6.0929 CH2           1 RES     
      25 CH2          4.9560    -6.5230    -7.1952 CH2           1 RES     
      26 CH2          4.6543    -5.8899    -8.5663 CH2           1 RES     
      27 CH2          5.3857    -6.6782    -9.6686 CH2           1 RES     
      28 CH2          5.0840    -6.0451   -11.0397 CH2           1 RES     
      29 CH2          5.8154    -6.8334   -12.1421 CH2           1 RES     
      30 CH2          5.5137    -6.2004   -13.5131 CH2           1 RES     
      31 CH3          6.2118    -6.9528   -14.5654 CH3           1 RES     
      32 CH2          0.6808    -2.6447     4.6470 CH2           1 RES     
      33 OE           0.3040    -2.0955     3.3428 OE            1 RES     
      34 C            0.1675    -0.6572     3.7460 C             1 RES     
      35 O            0.3542    -0.2322     4.8850 O             1 RES     
      36 CH2          0.0000    -0.0000     2.5153 CH2           1 RES     
      37 CH2          0.0000    -0.8888     1.2576 CH2           1 RES     
      38 CH2          0.0000     0.0000     0.0000 CH2           1 RES     
      39 CH2         -0.0000    -0.8888    -1.2576 CH2           1 RES     
      40 CH2         -0.0000    -0.0000    -2.5153 CH2           1 RES     
      41 CH2          0.0000    -0.8888    -3.7729 CH2           1 RES     
      42 CH2         -0.0000    -0.0000    -5.0305 CH2           1 RES     
      43 CH2         -0.0000    -0.8888    -6.2881 CH2           1 RES     
      44 CH2         -0.0000    -0.0000    -7.5458 CH2           1 RES     
      45 CH2         -0.0000    -0.8888    -8.8034 CH2           1 RES     
      46 CH2         -0.0000     0.0000   -10.0610 CH2           1 RES     
      47 CH2         -0.0000    -0.8888   -11.3187 CH2           1 RES     
      48 CH2         -0.0000     0.0000   -12.5763 CH2           1 RES     
      49 CH2         -0.0000    -0.8888   -13.8339 CH2           1 RES     
      50 CH3         -0.0000    -0.0404   -15.0344 CH3           1 RES     
@<TRIPOS>BOND
       1       11       12 1
       2        6        7 1
       3        4        2 1
       4       32       33 1
       5       22       23 1
       6       43       44 1
       7       19       20 1
       8       25       26 1
       9       28       29 1
      10       40       41 1
      11        8       10 1
      12       33       34 1
      13       46       47 1
      14       38       37 1
      15       14       15 1
      16       36       37 1
      17       30       31 1
      18        7        8 1
      19        5        6 1
      20       13       14 1
      21       13       12 1
      22       42       43 1
      23       39       40 1
      24       45       46 1
      25        3        4 1
      26       48       49 1
      27       17       18 1
      28       15       16 1
      29       48       47 1
      30       23       24 1
      31       29       30 1
      32       34       36 1
      33       20       21 1
      34       34       35 1
      35       19       18 1
      36        4        5 1
      37       17       15 1
      38       49       50 1
      39       32       13 1
      40        8        9 1
      41       41       42 1
      42       44       45 1
      43       38       39 1
      44       27       28 1
      45       21       22 1
      46       24       25 1
      47       27       26 1
      48        4        1 1
      49        8       11 1
@<TRIPOS>SUBSTRUCTURE
       1 RES             1 RESIDUE    0 **** ROOT      0
