@<TRIPOS>MOLECULE
RES
27 26 1 0 1
SMALL
NO_CHARGES
@<TRIPOS>CRYSIN
    5.0279     7.0482    35.6508    90.0000    90.0000    90.0000  1  1
@<TRIPOS>ATOM
       1 CH3         14.9101     0.8484   -16.1157 CH3           1 RES     
       2 CH2         14.9101     0.0000   -14.9153 CH2           1 RES     
       3 CH2         14.9101     0.8888   -13.6576 CH2           1 RES     
       4 CH2         14.9101     0.0000   -12.4000 CH2           1 RES     
       5 CH2         14.9101     0.8888   -11.1424 CH2           1 RES     
       6 CH2         14.9101     0.0000    -9.8848 CH2           1 RES     
       7 CH2         14.9101     0.8888    -8.6271 CH2           1 RES     
       8 CH2         14.9101     0.0000    -7.3695 CH2           1 RES     
       9 CH2         14.9101     0.8888    -6.1119 CH2           1 RES     
      10 CH2         14.9101     0.0000    -4.8543 CH2           1 RES     
      11 CH2         14.9101     0.8888    -3.5966 CH2           1 RES     
      12 CH2         14.9101     0.0000    -2.3390 CH2           1 RES     
      13 CH2         14.9101     0.8888    -1.0814 CH2           1 RES     
      14 CH2         14.9101    -0.0000     0.1763 CH2           1 RES     
      15 CH2         14.9101     0.8888     1.4339 CH2           1 RES     
      16 CH2         14.9101    -0.0000     2.6915 CH2           1 RES     
      17 CH2         14.9101     0.8888     3.9491 CH2           1 RES     
      18 CH2         14.9101    -0.0000     5.2068 CH2           1 RES     
      19 CH2         14.9101     0.8888     6.4644 CH2           1 RES     
      20 CH2         14.9101    -0.0000     7.7220 CH2           1 RES     
      21 CH2         14.9101     0.8888     8.9797 CH2           1 RES     
      22 CH2         14.9101    -0.0000    10.2373 CH2           1 RES     
      23 CH2         14.9101     0.8888    11.4949 CH2           1 RES     
      24 O           14.9280    -1.1594    12.6676 O             1 RES     
      25 C           14.9187     0.0706    12.6676 C             1 RES     
      26 OA          14.9255     0.7781    13.7997 OA            1 RES     
      27 H           14.9380     0.1610    14.5350 H             1 RES     
@<TRIPOS>BOND
       1       24       25 1
       2       14       15 1
       3        8        9 1
       4       20       21 1
       5        5        6 1
       6       11       12 1
       7        3        4 1
       8        1        2 1
       9        3        2 1
      10       17       18 1
      11       25       23 1
      12       13       12 1
      13       26       27 1
      14       18       19 1
      15        6        7 1
      16        9       10 1
      17       21       22 1
      18       15       16 1
      19       25       26 1
      20       22       23 1
      21        4        5 1
      22       19       20 1
      23        7        8 1
      24       10       11 1
      25       13       14 1
      26       16       17 1
@<TRIPOS>SUBSTRUCTURE
       1 RES             1 RESIDUE    0 **** ROOT      0
