@<TRIPOS>MOLECULE
RES
36 35 1 0 1
SMALL
NO_CHARGES
@<TRIPOS>CRYSIN
   16.6133     8.3553    26.2014    90.0000    90.0000    90.0000  1  1
@<TRIPOS>ATOM
       1 CH3          0.0000     0.0197    17.2563 CH3           1 RES     
       2 CH2        -11.6133    -0.9831     0.9246 CH2           1 RES     
       3 CH2        -10.1617    -0.9516     1.4377 CH2           1 RES     
       4 CH2        -10.1617    -0.8572     2.9748 CH2           1 RES     
       5 CH2         -8.7100    -0.8257     3.4879 CH2           1 RES     
       6 CH2         -8.7100    -0.7313     5.0250 CH2           1 RES     
       7 CH2         -7.2583    -0.6998     5.5381 CH2           1 RES     
       8 CH2         -7.2583    -0.6054     7.0752 CH2           1 RES     
       9 CH2         -5.8067    -0.5739     7.5883 CH2           1 RES     
      10 CH2         -5.8067    -0.4795     9.1254 CH2           1 RES     
      11 CH2         -4.3550    -0.4480     9.6385 CH2           1 RES     
      12 CH2         -4.3550    -0.3537    11.1756 CH2           1 RES     
      13 CH2         -2.9033    -0.3221    11.6887 CH2           1 RES     
      14 CH2         -2.9033    -0.2278    13.2258 CH2           1 RES     
      15 CH2         -1.4517    -0.1963    13.7389 CH2           1 RES     
      16 CH2         -1.4517    -0.1019    15.2760 CH2           1 RES     
      17 CH2          0.0000    -0.0704    15.7891 CH2           1 RES     
      18 OE           0.0000     0.0197    17.2563 OE            1 RES     
      19 C            0.0000     1.3057    18.0286 C             1 RES     
      20 O            0.0000     1.3811    19.2563 O             1 RES     
      21 CH2         -0.0000     2.1459    16.8715 CH2           1 RES     
      22 CH2         -0.0000     1.2734    15.6026 CH2           1 RES     
      23 CH2         -0.0000     2.1782    14.3564 CH2           1 RES     
      24 CH2         -0.0000     1.3057    13.0875 CH2           1 RES     
      25 CH2         -0.0000     2.2106    11.8414 CH2           1 RES     
      26 CH2         -0.0000     1.3380    10.5725 CH2           1 RES     
      27 CH2         -0.0000     2.2429     9.3264 CH2           1 RES     
      28 CH2         -0.0000     1.3703     8.0574 CH2           1 RES     
      29 CH2         -0.0000     2.2752     6.8113 CH2           1 RES     
      30 CH2         -0.0000     1.4026     5.5424 CH2           1 RES     
      31 CH2         -0.0000     2.3075     4.2963 CH2           1 RES     
      32 CH2         -0.0000     1.4349     3.0273 CH2           1 RES     
      33 CH2         -0.0000     2.3398     1.7812 CH2           1 RES     
      34 CH2         -0.0000     1.4673     0.5123 CH2           1 RES     
      35 CH2         -0.0000     2.3721    -0.7338 CH2           1 RES     
      36 CH3         -0.0000     1.5392    -1.9451 CH3           1 RES     
@<TRIPOS>BOND
       1       17       18 1
       2       12       11 1
       3        6        7 1
       4        9       10 1
       5       12       13 1
       6       15       16 1
       7       21       22 1
       8       23       22 1
       9       35       36 1
      10       19       21 1
      11       23       24 1
      12       29       30 1
      13       26       27 1
      14       18       19 1
      15       33       32 1
      16       14       15 1
      17       33       34 1
      18       30       31 1
      19        5        6 1
      20       24       25 1
      21        8        9 1
      22       27       28 1
      23       17        1 1
      24        3        2 1
      25        3        4 1
      26       13       14 1
      27       28       29 1
      28       34       35 1
      29       19       20 1
      30       10       11 1
      31       16       17 1
      32       31       32 1
      33       25       26 1
      34        7        8 1
      35        4        5 1
@<TRIPOS>SUBSTRUCTURE
       1 RES             1 RESIDUE    0 **** ROOT      0
