@<TRIPOS>MOLECULE
RES
38 37 1 0 1
SMALL
NO_CHARGES
@<TRIPOS>CRYSIN
   17.5221     9.4362    26.1732    90.0000    90.0000    90.0000  1  1
@<TRIPOS>ATOM
       1 CH3        -11.7481    -0.1524     1.5705 CH3           1 RES     
       2 CH1        -11.6133    -1.0639     2.7158 CH1           1 RES     
       3 CH3        -12.5221    -0.6386     3.7901 CH3           1 RES     
       4 CH2        -10.1617    -1.0324     3.2289 CH2           1 RES     
       5 CH2        -10.1617    -0.9381     4.7660 CH2           1 RES     
       6 CH2         -8.7100    -0.9065     5.2791 CH2           1 RES     
       7 CH2         -8.7100    -0.8122     6.8162 CH2           1 RES     
       8 CH2         -7.2583    -0.7807     7.3293 CH2           1 RES     
       9 CH2         -7.2583    -0.6863     8.8664 CH2           1 RES     
      10 CH2         -5.8067    -0.6548     9.3795 CH2           1 RES     
      11 CH2         -5.8067    -0.5604    10.9166 CH2           1 RES     
      12 CH2         -4.3550    -0.5289    11.4297 CH2           1 RES     
      13 CH2         -4.3550    -0.4345    12.9668 CH2           1 RES     
      14 CH2         -2.9033    -0.4030    13.4799 CH2           1 RES     
      15 CH2         -2.9033    -0.3086    15.0170 CH2           1 RES     
      16 CH2         -1.4517    -0.2771    15.5301 CH2           1 RES     
      17 CH2         -1.4517    -0.1827    17.0672 CH2           1 RES     
      18 CH2          0.0000    -0.1512    17.5803 CH2           1 RES     
      19 OE           0.0000    -0.0611    19.0476 OE            1 RES     
      20 C            0.0000     1.2248    19.8198 C             1 RES     
      21 O            0.0000     1.3002    21.0475 O             1 RES     
      22 CH2         -0.0000     2.0651    18.6627 CH2           1 RES     
      23 CH2         -0.0000     1.1925    17.3938 CH2           1 RES     
      24 CH2         -0.0000     2.0974    16.1477 CH2           1 RES     
      25 CH2         -0.0000     1.2248    14.8787 CH2           1 RES     
      26 CH2         -0.0000     2.1297    13.6326 CH2           1 RES     
      27 CH2         -0.0000     1.2572    12.3637 CH2           1 RES     
      28 CH2         -0.0000     2.1620    11.1176 CH2           1 RES     
      29 CH2         -0.0000     1.2895     9.8486 CH2           1 RES     
      30 CH2         -0.0000     2.1944     8.6025 CH2           1 RES     
      31 CH2         -0.0000     1.3218     7.3336 CH2           1 RES     
      32 CH2         -0.0000     2.2267     6.0875 CH2           1 RES     
      33 CH2         -0.0000     1.3541     4.8185 CH2           1 RES     
      34 CH2         -0.0000     2.2590     3.5724 CH2           1 RES     
      35 CH2         -0.0000     1.3864     2.3035 CH2           1 RES     
      36 CH1         -0.0000     2.2913     1.0574 CH1           1 RES     
      37 CH3         -0.9800     3.3722     1.2367 CH3           1 RES     
      38 CH3         -0.3587     1.4960    -0.1257 CH3           1 RES     
@<TRIPOS>BOND
       1        7        8 1
       2       16       17 1
       3       10       11 1
       4       19       20 1
       5       13       14 1
       6       20       22 1
       7       36       38 1
       8        4        5 1
       9        5        6 1
      10        1        2 1
      11       23       24 1
      12       20       21 1
      13       28       29 1
      14       12       11 1
      15       25       26 1
      16       34       35 1
      17       31       32 1
      18       12       13 1
      19        6        7 1
      20       15       16 1
      21        9       10 1
      22        3        2 1
      23       24       25 1
      24       27       28 1
      25       33       34 1
      26       30       31 1
      27        4        2 1
      28       36       37 1
      29       23       22 1
      30       14       15 1
      31       17       18 1
      32        8        9 1
      33       33       32 1
      34       26       27 1
      35       29       30 1
      36       18       19 1
      37       35       36 1
@<TRIPOS>SUBSTRUCTURE
       1 RES             1 RESIDUE    0 **** ROOT      0
