@<TRIPOS>MOLECULE
RES
12 11 1 0 1
SMALL
NO_CHARGES
@<TRIPOS>CRYSIN
    7.3514     9.9528    11.7487    90.0000    90.0000    90.0000  1  1
@<TRIPOS>ATOM
       1 CH3          0.0000     1.4300     0.0000 CH3           1 RES     
       2 CH3          1.2002    -0.5930    -0.0000 CH3           1 RES     
       3 CH3         -0.7231    -0.4180     1.0262 CH3           1 RES     
       4 NL           0.0000     0.0000     0.0000 NL            1 RES     
       5 CH2         -0.7534    -0.4355    -1.0868 CH2           1 RES     
       6 CH2          0.1127     0.0646    -2.2579 CH2           1 RES     
       7 OA          -0.5303    -0.3067    -3.5439 OA            1 RES     
       8 P            0.0165    -1.7481    -3.9721 P             1 RES     
       9 OM           1.5980    -1.6038    -4.1666 OM            1 RES     
      10 OM          -0.4208    -2.7694    -2.8207 OM            1 RES     
      11 OA          -0.6552    -2.1842    -5.3573 OA            1 RES     
      12 CH2         -0.1259    -3.5228    -5.7225 CH2           1 RES     
@<TRIPOS>BOND
       1        6        7 1
       2        8        9 1
       3        5        6 1
       4        5        4 1
       5        2        4 1
       6        4        1 1
       7        8       10 1
       8        7        8 1
       9        8       11 1
      10        3        4 1
      11       11       12 1
@<TRIPOS>SUBSTRUCTURE
       1 RES             1 RESIDUE    0 **** ROOT      0
