@<TRIPOS>MOLECULE
RES
34 33 1 0 1
SMALL
NO_CHARGES
@<TRIPOS>CRYSIN
    7.3063    12.6310    36.8790    90.0000    90.0000    90.0000  1  1
@<TRIPOS>ATOM
       1 CH1         -0.3693    -1.1424    -0.8482 CH1           1 RES     
       2 OE           0.0000     0.0000     0.0000 OE            1 RES     
       3 C            0.1366    -1.4383     0.4032 C             1 RES     
       4 O           -0.0502    -1.8633     1.5422 O             1 RES     
       5 CH2          0.3040    -2.0955    -0.8275 CH2           1 RES     
       6 CH2          0.3040    -1.2067    -2.0852 CH2           1 RES     
       7 CH2          0.3040    -2.0955    -3.3428 CH2           1 RES     
       8 CH2          0.3040    -1.2067    -4.6004 CH2           1 RES     
       9 CH2          0.3040    -2.0955    -5.8581 CH2           1 RES     
      10 CH2          0.3040    -1.2067    -7.1157 CH2           1 RES     
      11 CH2          0.3040    -2.0955    -8.3733 CH2           1 RES     
      12 CH2          0.3040    -1.2067    -9.6309 CH2           1 RES     
      13 CH2          0.3040    -2.0955   -10.8886 CH2           1 RES     
      14 CH2          0.3040    -1.2067   -12.1462 CH2           1 RES     
      15 CH2          0.3040    -2.0955   -13.4038 CH2           1 RES     
      16 CH2          0.3040    -1.2067   -14.6615 CH2           1 RES     
      17 CH3          0.3040    -2.0551   -15.8619 CH3           1 RES     
      18 CH2          0.4122    -2.3904    -0.3971 CH2           1 RES     
      19 OE           0.3091    -2.3862     1.0636 OE            1 RES     
      20 C            1.1003    -3.6305     1.3391 C             1 RES     
      21 O            1.6174    -4.3334     0.4723 O             1 RES     
      22 CH2          1.2356    -3.6142     2.7376 CH2           1 RES     
      23 CH2          0.5780    -2.4338     3.4765 CH2           1 RES     
      24 CH2          0.9822    -2.4679     4.9621 CH2           1 RES     
      25 CH2          0.3246    -1.2875     5.7010 CH2           1 RES     
      26 CH2          0.7288    -1.3216     7.1866 CH2           1 RES     
      27 CH2          0.0712    -0.1413     7.9255 CH2           1 RES     
      28 CH2          0.4755    -0.1753     9.4111 CH2           1 RES     
      29 CH2         -0.1821     1.0050    10.1500 CH2           1 RES     
      30 CH2          0.2221     0.9710    11.6356 CH2           1 RES     
      31 CH2         -0.4355     2.1513    12.3745 CH2           1 RES     
      32 CH2         -0.0313     2.1172    13.8601 CH2           1 RES     
      33 CH2         -0.6889     3.2976    14.5990 CH2           1 RES     
      34 CH3         -0.3030     3.2651    16.0170 CH3           1 RES     
@<TRIPOS>BOND
       1       30       31 1
       2       27       28 1
       3        8        9 1
       4       11       12 1
       5       14       15 1
       6       24       25 1
       7        5        3 1
       8       19       20 1
       9       18       19 1
      10       20       21 1
      11        6        7 1
      12        5        6 1
      13       20       22 1
      14        2        1 1
      15       22       23 1
      16       14       13 1
      17       24       23 1
      18       28       29 1
      19       31       32 1
      20       25       26 1
      21       33       34 1
      22       16       17 1
      23       32       33 1
      24       29       30 1
      25        9       10 1
      26       26       27 1
      27       18        1 1
      28       12       13 1
      29       15       16 1
      30        2        3 1
      31       10       11 1
      32        7        8 1
      33        3        4 1
@<TRIPOS>SUBSTRUCTURE
       1 RES             1 RESIDUE    0 **** ROOT      0
