@<TRIPOS>MOLECULE
*****
 12 12 0 0 0
SMALL
GASTEIGER

@<TRIPOS>ATOM
      1 L          -0.1172    2.3334   -0.0000 L       1  UNL1       -0.0618
      2 C          -1.3248    1.6367   -0.0000 C.ar    1  UNL1       -0.0618
      3 C          -1.3252    0.2425   -0.0000 C.ar    1  UNL1       -0.0618
      4 C          -0.1180   -0.4549   -0.0000 C.ar    1  UNL1       -0.0618
      5 C           1.0896    0.2418   -0.0000 C.ar    1  UNL1       -0.0618
      6 C           1.0900    1.6360   -0.0000 C.ar    1  UNL1       -0.0618
      7 H          -0.1169    3.4207   -0.0000 H       1  UNL1        0.0618
      8 H          -2.2663    2.1806   -0.0000 H       1  UNL1        0.0618
      9 H          -2.2670   -0.3009   -0.0000 H       1  UNL1        0.0618
     10 H          -0.1183   -1.5422   -0.0000 H       1  UNL1        0.0618
     11 H           2.0310   -0.3021   -0.0000 H       1  UNL1        0.0618
     12 H           2.0318    2.1793   -0.0000 H       1  UNL1        0.0618
@<TRIPOS>BOND
     1     1     2   ar
     2     2     3   ar
     3     3     4   ar
     4     4     5   ar
     5     5     6   ar
     6     1     6   ar
     7     1     7    1
     8     2     8    1
     9     3     9    1
    10     4    10    1
    11     5    11    1
    12     6    12    1
