@<TRIPOS>MOLECULE
Generated by mBuild
1900 2400 0 0 0
SMALL
NO_CHARGES

@<TRIPOS>ATOM
1 O1   1.3472   0.7778   7.1500 O1 1 RES   0.0000
2 Si1   1.3472   0.7778   0.0000 Si1 1 RES   0.0000
3 O2   1.3472   2.3335   0.5500 O2 1 RES   0.0000
4 Si2   1.3472   3.8891   1.1000 Si2 1 RES   0.0000
5 O3   2.6944   0.0000   0.5500 O3 1 RES   0.0000
6 O4   0.0000   0.0000   0.5500 O4 1 RES   0.0000
7 O5   1.3472   3.8891   2.7500 O5 1 RES   0.0000
8 Si3   1.3472   3.8891   4.4000 Si3 1 RES   0.0000
9 O6   1.3472   2.3335   4.9500 O6 1 RES   0.0000
10 Si4   1.3472   0.7778   5.5000 Si4 1 RES   0.0000
11 O7   2.6944   0.0000   4.9500 O7 1 RES   0.0000
12 O8   0.0000   0.0000   4.9500 O8 1 RES   0.0000
13 Si5   1.3472   0.7778   8.8000 Si5 1 RES   0.0000
14 O9   2.6944   0.0000   9.3500 O9 1 RES   0.0000
15 O10   0.0000   0.0000   9.3500 O10 1 RES   0.0000
16 O11   1.3472   2.3335   9.3500 O11 1 RES   0.0000
17 Si6   1.3472   3.8891   9.9000 Si6 1 RES   0.0000
18 O12   1.3472   3.8891  11.5500 O12 1 RES   0.0000
19 O13   4.0417   5.4447   7.1500 O13 1 RES   0.0000
20 Si7   4.0417   5.4447   0.0000 Si7 1 RES   0.0000
21 O14   4.0417   7.0003   0.5500 O14 1 RES   0.0000
22 Si8   4.0417   8.5560   1.1000 Si8 1 RES   0.0000
23 O15   5.3889   4.6669   0.5500 O15 1 RES   0.0000
24 O16   2.6944   4.6669   0.5500 O16 1 RES   0.0000
25 O17   4.0417   8.5560   2.7500 O17 1 RES   0.0000
26 Si9   4.0417   8.5560   4.4000 Si9 1 RES   0.0000
27 O18   4.0417   7.0003   4.9500 O18 1 RES   0.0000
28 Si10   4.0417   5.4447   5.5000 Si10 1 RES   0.0000
29 O19   5.3889   4.6669   4.9500 O19 1 RES   0.0000
30 O20   2.6944   4.6669   4.9500 O20 1 RES   0.0000
31 Si11   4.0417   5.4447   8.8000 Si11 1 RES   0.0000
32 O21   5.3889   4.6669   9.3500 O21 1 RES   0.0000
33 O22   2.6944   4.6669   9.3500 O22 1 RES   0.0000
34 O23   4.0417   7.0003   9.3500 O23 1 RES   0.0000
35 Si12   4.0417   8.5560   9.9000 Si12 1 RES   0.0000
36 O24   4.0417   8.5560  11.5500 O24 1 RES   0.0000
37 O25   6.7361   0.7778   7.1500 O25 1 RES   0.0000
38 Si13   6.7361   0.7778   0.0000 Si13 1 RES   0.0000
39 O26   6.7361   2.3335   0.5500 O26 1 RES   0.0000
40 Si14   6.7361   3.8891   1.1000 Si14 1 RES   0.0000
41 O27   8.0833   0.0000   0.5500 O27 1 RES   0.0000
42 O28   5.3889   0.0000   0.5500 O28 1 RES   0.0000
43 O29   6.7361   3.8891   2.7500 O29 1 RES   0.0000
44 Si15   6.7361   3.8891   4.4000 Si15 1 RES   0.0000
45 O30   6.7361   2.3335   4.9500 O30 1 RES   0.0000
46 Si16   6.7361   0.7778   5.5000 Si16 1 RES   0.0000
47 O31   8.0833   0.0000   4.9500 O31 1 RES   0.0000
48 O32   5.3889   0.0000   4.9500 O32 1 RES   0.0000
49 Si17   6.7361   0.7778   8.8000 Si17 1 RES   0.0000
50 O33   8.0833   0.0000   9.3500 O33 1 RES   0.0000
51 O34   5.3889   0.0000   9.3500 O34 1 RES   0.0000
52 O35   6.7361   2.3335   9.3500 O35 1 RES   0.0000
53 Si18   6.7361   3.8891   9.9000 Si18 1 RES   0.0000
54 O36   6.7361   3.8891  11.5500 O36 1 RES   0.0000
55 O37   9.4305   5.4447   7.1500 O37 1 RES   0.0000
56 Si19   9.4305   5.4447   0.0000 Si19 1 RES   0.0000
57 O38   9.4305   7.0003   0.5500 O38 1 RES   0.0000
58 Si20   9.4305   8.5560   1.1000 Si20 1 RES   0.0000
59 O39  10.7778   4.6669   0.5500 O39 1 RES   0.0000
60 O40   8.0833   4.6669   0.5500 O40 1 RES   0.0000
61 O41   9.4305   8.5560   2.7500 O41 1 RES   0.0000
62 Si21   9.4305   8.5560   4.4000 Si21 1 RES   0.0000
63 O42   9.4305   7.0003   4.9500 O42 1 RES   0.0000
64 Si22   9.4305   5.4447   5.5000 Si22 1 RES   0.0000
65 O43  10.7778   4.6669   4.9500 O43 1 RES   0.0000
66 O44   8.0833   4.6669   4.9500 O44 1 RES   0.0000
67 Si23   9.4305   5.4447   8.8000 Si23 1 RES   0.0000
68 O45  10.7778   4.6669   9.3500 O45 1 RES   0.0000
69 O46   8.0833   4.6669   9.3500 O46 1 RES   0.0000
70 O47   9.4305   7.0003   9.3500 O47 1 RES   0.0000
71 Si24   9.4305   8.5560   9.9000 Si24 1 RES   0.0000
72 O48   9.4305   8.5560  11.5500 O48 1 RES   0.0000
73 O49  12.1250   0.7778   7.1500 O49 1 RES   0.0000
74 Si25  12.1250   0.7778   0.0000 Si25 1 RES   0.0000
75 O50  12.1250   2.3335   0.5500 O50 1 RES   0.0000
76 Si26  12.1250   3.8891   1.1000 Si26 1 RES   0.0000
77 O51  13.4722   0.0000   0.5500 O51 1 RES   0.0000
78 O52  10.7778   0.0000   0.5500 O52 1 RES   0.0000
79 O53  12.1250   3.8891   2.7500 O53 1 RES   0.0000
80 Si27  12.1250   3.8891   4.4000 Si27 1 RES   0.0000
81 O54  12.1250   2.3335   4.9500 O54 1 RES   0.0000
82 Si28  12.1250   0.7778   5.5000 Si28 1 RES   0.0000
83 O55  13.4722   0.0000   4.9500 O55 1 RES   0.0000
84 O56  10.7778   0.0000   4.9500 O56 1 RES   0.0000
85 Si29  12.1250   0.7778   8.8000 Si29 1 RES   0.0000
86 O57  13.4722   0.0000   9.3500 O57 1 RES   0.0000
87 O58  10.7778   0.0000   9.3500 O58 1 RES   0.0000
88 O59  12.1250   2.3335   9.3500 O59 1 RES   0.0000
89 Si30  12.1250   3.8891   9.9000 Si30 1 RES   0.0000
90 O60  12.1250   3.8891  11.5500 O60 1 RES   0.0000
91 O61  14.8194   5.4447   7.1500 O61 1 RES   0.0000
92 Si31  14.8194   5.4447   0.0000 Si31 1 RES   0.0000
93 O62  14.8194   7.0003   0.5500 O62 1 RES   0.0000
94 Si32  14.8194   8.5560   1.1000 Si32 1 RES   0.0000
95 O63  16.1666   4.6669   0.5500 O63 1 RES   0.0000
96 O64  13.4722   4.6669   0.5500 O64 1 RES   0.0000
97 O65  14.8194   8.5560   2.7500 O65 1 RES   0.0000
98 Si33  14.8194   8.5560   4.4000 Si33 1 RES   0.0000
99 O66  14.8194   7.0003   4.9500 O66 1 RES   0.0000
100 Si34  14.8194   5.4447   5.5000 Si34 1 RES   0.0000
101 O67  16.1666   4.6669   4.9500 O67 1 RES   0.0000
102 O68  13.4722   4.6669   4.9500 O68 1 RES   0.0000
103 Si35  14.8194   5.4447   8.8000 Si35 1 RES   0.0000
104 O69  16.1666   4.6669   9.3500 O69 1 RES   0.0000
105 O70  13.4722   4.6669   9.3500 O70 1 RES   0.0000
106 O71  14.8194   7.0003   9.3500 O71 1 RES   0.0000
107 Si36  14.8194   8.5560   9.9000 Si36 1 RES   0.0000
108 O72  14.8194   8.5560  11.5500 O72 1 RES   0.0000
109 O73  17.5139   0.7778   7.1500 O73 1 RES   0.0000
110 Si37  17.5139   0.7778   0.0000 Si37 1 RES   0.0000
111 O74  17.5139   2.3335   0.5500 O74 1 RES   0.0000
112 Si38  17.5139   3.8891   1.1000 Si38 1 RES   0.0000
113 O75  18.8611   0.0000   0.5500 O75 1 RES   0.0000
114 O76  16.1666   0.0000   0.5500 O76 1 RES   0.0000
115 O77  17.5139   3.8891   2.7500 O77 1 RES   0.0000
116 Si39  17.5139   3.8891   4.4000 Si39 1 RES   0.0000
117 O78  17.5139   2.3335   4.9500 O78 1 RES   0.0000
118 Si40  17.5139   0.7778   5.5000 Si40 1 RES   0.0000
119 O79  18.8611   0.0000   4.9500 O79 1 RES   0.0000
120 O80  16.1666   0.0000   4.9500 O80 1 RES   0.0000
121 Si41  17.5139   0.7778   8.8000 Si41 1 RES   0.0000
122 O81  18.8611   0.0000   9.3500 O81 1 RES   0.0000
123 O82  16.1666   0.0000   9.3500 O82 1 RES   0.0000
124 O83  17.5139   2.3335   9.3500 O83 1 RES   0.0000
125 Si42  17.5139   3.8891   9.9000 Si42 1 RES   0.0000
126 O84  17.5139   3.8891  11.5500 O84 1 RES   0.0000
127 O85  20.2083   5.4447   7.1500 O85 1 RES   0.0000
128 Si43  20.2083   5.4447   0.0000 Si43 1 RES   0.0000
129 O86  20.2083   7.0003   0.5500 O86 1 RES   0.0000
130 Si44  20.2083   8.5560   1.1000 Si44 1 RES   0.0000
131 O87  21.5555   4.6669   0.5500 O87 1 RES   0.0000
132 O88  18.8611   4.6669   0.5500 O88 1 RES   0.0000
133 O89  20.2083   8.5560   2.7500 O89 1 RES   0.0000
134 Si45  20.2083   8.5560   4.4000 Si45 1 RES   0.0000
135 O90  20.2083   7.0003   4.9500 O90 1 RES   0.0000
136 Si46  20.2083   5.4447   5.5000 Si46 1 RES   0.0000
137 O91  21.5555   4.6669   4.9500 O91 1 RES   0.0000
138 O92  18.8611   4.6669   4.9500 O92 1 RES   0.0000
139 Si47  20.2083   5.4447   8.8000 Si47 1 RES   0.0000
140 O93  21.5555   4.6669   9.3500 O93 1 RES   0.0000
141 O94  18.8611   4.6669   9.3500 O94 1 RES   0.0000
142 O95  20.2083   7.0003   9.3500 O95 1 RES   0.0000
143 Si48  20.2083   8.5560   9.9000 Si48 1 RES   0.0000
144 O96  20.2083   8.5560  11.5500 O96 1 RES   0.0000
145 O97  22.9027   0.7778   7.1500 O97 1 RES   0.0000
146 Si49  22.9027   0.7778   0.0000 Si49 1 RES   0.0000
147 O98  22.9027   2.3335   0.5500 O98 1 RES   0.0000
148 Si50  22.9027   3.8891   1.1000 Si50 1 RES   0.0000
149 O99  24.2500   0.0000   0.5500 O99 1 RES   0.0000
150 O100  21.5555   0.0000   0.5500 O100 1 RES   0.0000
151 O101  22.9027   3.8891   2.7500 O101 1 RES   0.0000
152 Si51  22.9027   3.8891   4.4000 Si51 1 RES   0.0000
153 O102  22.9027   2.3335   4.9500 O102 1 RES   0.0000
154 Si52  22.9027   0.7778   5.5000 Si52 1 RES   0.0000
155 O103  24.2500   0.0000   4.9500 O103 1 RES   0.0000
156 O104  21.5555   0.0000   4.9500 O104 1 RES   0.0000
157 Si53  22.9027   0.7778   8.8000 Si53 1 RES   0.0000
158 O105  24.2500   0.0000   9.3500 O105 1 RES   0.0000
159 O106  21.5555   0.0000   9.3500 O106 1 RES   0.0000
160 O107  22.9027   2.3335   9.3500 O107 1 RES   0.0000
161 Si54  22.9027   3.8891   9.9000 Si54 1 RES   0.0000
162 O108  22.9027   3.8891  11.5500 O108 1 RES   0.0000
163 O109  25.5972   5.4447   7.1500 O109 1 RES   0.0000
164 Si55  25.5972   5.4447   0.0000 Si55 1 RES   0.0000
165 O110  25.5972   7.0003   0.5500 O110 1 RES   0.0000
166 Si56  25.5972   8.5560   1.1000 Si56 1 RES   0.0000
167 O111  26.9444   4.6669   0.5500 O111 1 RES   0.0000
168 O112  24.2500   4.6669   0.5500 O112 1 RES   0.0000
169 O113  25.5972   8.5560   2.7500 O113 1 RES   0.0000
170 Si57  25.5972   8.5560   4.4000 Si57 1 RES   0.0000
171 O114  25.5972   7.0003   4.9500 O114 1 RES   0.0000
172 Si58  25.5972   5.4447   5.5000 Si58 1 RES   0.0000
173 O115  26.9444   4.6669   4.9500 O115 1 RES   0.0000
174 O116  24.2500   4.6669   4.9500 O116 1 RES   0.0000
175 Si59  25.5972   5.4447   8.8000 Si59 1 RES   0.0000
176 O117  26.9444   4.6669   9.3500 O117 1 RES   0.0000
177 O118  24.2500   4.6669   9.3500 O118 1 RES   0.0000
178 O119  25.5972   7.0003   9.3500 O119 1 RES   0.0000
179 Si60  25.5972   8.5560   9.9000 Si60 1 RES   0.0000
180 O120  25.5972   8.5560  11.5500 O120 1 RES   0.0000
181 O121  28.2916   0.7778   7.1500 O121 1 RES   0.0000
182 Si61  28.2916   0.7778   0.0000 Si61 1 RES   0.0000
183 O122  28.2916   2.3335   0.5500 O122 1 RES   0.0000
184 Si62  28.2916   3.8891   1.1000 Si62 1 RES   0.0000
185 O123  29.6388   0.0000   0.5500 O123 1 RES   0.0000
186 O124  26.9444   0.0000   0.5500 O124 1 RES   0.0000
187 O125  28.2916   3.8891   2.7500 O125 1 RES   0.0000
188 Si63  28.2916   3.8891   4.4000 Si63 1 RES   0.0000
189 O126  28.2916   2.3335   4.9500 O126 1 RES   0.0000
190 Si64  28.2916   0.7778   5.5000 Si64 1 RES   0.0000
191 O127  29.6388   0.0000   4.9500 O127 1 RES   0.0000
192 O128  26.9444   0.0000   4.9500 O128 1 RES   0.0000
193 Si65  28.2916   0.7778   8.8000 Si65 1 RES   0.0000
194 O129  29.6388   0.0000   9.3500 O129 1 RES   0.0000
195 O130  26.9444   0.0000   9.3500 O130 1 RES   0.0000
196 O131  28.2916   2.3335   9.3500 O131 1 RES   0.0000
197 Si66  28.2916   3.8891   9.9000 Si66 1 RES   0.0000
198 O132  28.2916   3.8891  11.5500 O132 1 RES   0.0000
199 O133  30.9861   5.4447   7.1500 O133 1 RES   0.0000
200 Si67  30.9861   5.4447   0.0000 Si67 1 RES   0.0000
201 O134  30.9861   7.0003   0.5500 O134 1 RES   0.0000
202 Si68  30.9861   8.5560   1.1000 Si68 1 RES   0.0000
203 O135  32.3333   4.6669   0.5500 O135 1 RES   0.0000
204 O136  29.6388   4.6669   0.5500 O136 1 RES   0.0000
205 O137  30.9861   8.5560   2.7500 O137 1 RES   0.0000
206 Si69  30.9861   8.5560   4.4000 Si69 1 RES   0.0000
207 O138  30.9861   7.0003   4.9500 O138 1 RES   0.0000
208 Si70  30.9861   5.4447   5.5000 Si70 1 RES   0.0000
209 O139  32.3333   4.6669   4.9500 O139 1 RES   0.0000
210 O140  29.6388   4.6669   4.9500 O140 1 RES   0.0000
211 Si71  30.9861   5.4447   8.8000 Si71 1 RES   0.0000
212 O141  32.3333   4.6669   9.3500 O141 1 RES   0.0000
213 O142  29.6388   4.6669   9.3500 O142 1 RES   0.0000
214 O143  30.9861   7.0003   9.3500 O143 1 RES   0.0000
215 Si72  30.9861   8.5560   9.9000 Si72 1 RES   0.0000
216 O144  30.9861   8.5560  11.5500 O144 1 RES   0.0000
217 O145  33.6805   0.7778   7.1500 O145 1 RES   0.0000
218 Si73  33.6805   0.7778   0.0000 Si73 1 RES   0.0000
219 O146  33.6805   2.3335   0.5500 O146 1 RES   0.0000
220 Si74  33.6805   3.8891   1.1000 Si74 1 RES   0.0000
221 O147  35.0277   0.0000   0.5500 O147 1 RES   0.0000
222 O148  32.3333   0.0000   0.5500 O148 1 RES   0.0000
223 O149  33.6805   3.8891   2.7500 O149 1 RES   0.0000
224 Si75  33.6805   3.8891   4.4000 Si75 1 RES   0.0000
225 O150  33.6805   2.3335   4.9500 O150 1 RES   0.0000
226 Si76  33.6805   0.7778   5.5000 Si76 1 RES   0.0000
227 O151  35.0277   0.0000   4.9500 O151 1 RES   0.0000
228 O152  32.3333   0.0000   4.9500 O152 1 RES   0.0000
229 Si77  33.6805   0.7778   8.8000 Si77 1 RES   0.0000
230 O153  35.0277   0.0000   9.3500 O153 1 RES   0.0000
231 O154  32.3333   0.0000   9.3500 O154 1 RES   0.0000
232 O155  33.6805   2.3335   9.3500 O155 1 RES   0.0000
233 Si78  33.6805   3.8891   9.9000 Si78 1 RES   0.0000
234 O156  33.6805   3.8891  11.5500 O156 1 RES   0.0000
235 O157  36.3749   5.4447   7.1500 O157 1 RES   0.0000
236 Si79  36.3749   5.4447   0.0000 Si79 1 RES   0.0000
237 O158  36.3749   7.0003   0.5500 O158 1 RES   0.0000
238 Si80  36.3749   8.5560   1.1000 Si80 1 RES   0.0000
239 O159  37.7222   4.6669   0.5500 O159 1 RES   0.0000
240 O160  35.0277   4.6669   0.5500 O160 1 RES   0.0000
241 O161  36.3749   8.5560   2.7500 O161 1 RES   0.0000
242 Si81  36.3749   8.5560   4.4000 Si81 1 RES   0.0000
243 O162  36.3749   7.0003   4.9500 O162 1 RES   0.0000
244 Si82  36.3749   5.4447   5.5000 Si82 1 RES   0.0000
245 O163  37.7222   4.6669   4.9500 O163 1 RES   0.0000
246 O164  35.0277   4.6669   4.9500 O164 1 RES   0.0000
247 Si83  36.3749   5.4447   8.8000 Si83 1 RES   0.0000
248 O165  37.7222   4.6669   9.3500 O165 1 RES   0.0000
249 O166  35.0277   4.6669   9.3500 O166 1 RES   0.0000
250 O167  36.3749   7.0003   9.3500 O167 1 RES   0.0000
251 Si84  36.3749   8.5560   9.9000 Si84 1 RES   0.0000
252 O168  36.3749   8.5560  11.5500 O168 1 RES   0.0000
253 O169  39.0694   0.7778   7.1500 O169 1 RES   0.0000
254 Si85  39.0694   0.7778   0.0000 Si85 1 RES   0.0000
255 O170  39.0694   2.3335   0.5500 O170 1 RES   0.0000
256 Si86  39.0694   3.8891   1.1000 Si86 1 RES   0.0000
257 O171  40.4166   0.0000   0.5500 O171 1 RES   0.0000
258 O172  37.7222   0.0000   0.5500 O172 1 RES   0.0000
259 O173  39.0694   3.8891   2.7500 O173 1 RES   0.0000
260 Si87  39.0694   3.8891   4.4000 Si87 1 RES   0.0000
261 O174  39.0694   2.3335   4.9500 O174 1 RES   0.0000
262 Si88  39.0694   0.7778   5.5000 Si88 1 RES   0.0000
263 O175  40.4166   0.0000   4.9500 O175 1 RES   0.0000
264 O176  37.7222   0.0000   4.9500 O176 1 RES   0.0000
265 Si89  39.0694   0.7778   8.8000 Si89 1 RES   0.0000
266 O177  40.4166   0.0000   9.3500 O177 1 RES   0.0000
267 O178  37.7222   0.0000   9.3500 O178 1 RES   0.0000
268 O179  39.0694   2.3335   9.3500 O179 1 RES   0.0000
269 Si90  39.0694   3.8891   9.9000 Si90 1 RES   0.0000
270 O180  39.0694   3.8891  11.5500 O180 1 RES   0.0000
271 O181  41.7638   5.4447   7.1500 O181 1 RES   0.0000
272 Si91  41.7638   5.4447   0.0000 Si91 1 RES   0.0000
273 O182  41.7638   7.0003   0.5500 O182 1 RES   0.0000
274 Si92  41.7638   8.5560   1.1000 Si92 1 RES   0.0000
275 O183  43.1110   4.6669   0.5500 O183 1 RES   0.0000
276 O184  40.4166   4.6669   0.5500 O184 1 RES   0.0000
277 O185  41.7638   8.5560   2.7500 O185 1 RES   0.0000
278 Si93  41.7638   8.5560   4.4000 Si93 1 RES   0.0000
279 O186  41.7638   7.0003   4.9500 O186 1 RES   0.0000
280 Si94  41.7638   5.4447   5.5000 Si94 1 RES   0.0000
281 O187  43.1110   4.6669   4.9500 O187 1 RES   0.0000
282 O188  40.4166   4.6669   4.9500 O188 1 RES   0.0000
283 Si95  41.7638   5.4447   8.8000 Si95 1 RES   0.0000
284 O189  43.1110   4.6669   9.3500 O189 1 RES   0.0000
285 O190  40.4166   4.6669   9.3500 O190 1 RES   0.0000
286 O191  41.7638   7.0003   9.3500 O191 1 RES   0.0000
287 Si96  41.7638   8.5560   9.9000 Si96 1 RES   0.0000
288 O192  41.7638   8.5560  11.5500 O192 1 RES   0.0000
289 O193  44.4583   0.7778   7.1500 O193 1 RES   0.0000
290 Si97  44.4583   0.7778   0.0000 Si97 1 RES   0.0000
291 O194  44.4583   2.3335   0.5500 O194 1 RES   0.0000
292 Si98  44.4583   3.8891   1.1000 Si98 1 RES   0.0000
293 O195  45.8055   0.0000   0.5500 O195 1 RES   0.0000
294 O196  43.1110   0.0000   0.5500 O196 1 RES   0.0000
295 O197  44.4583   3.8891   2.7500 O197 1 RES   0.0000
296 Si99  44.4583   3.8891   4.4000 Si99 1 RES   0.0000
297 O198  44.4583   2.3335   4.9500 O198 1 RES   0.0000
298 Si100  44.4583   0.7778   5.5000 Si100 1 RES   0.0000
299 O199  45.8055   0.0000   4.9500 O199 1 RES   0.0000
300 O200  43.1110   0.0000   4.9500 O200 1 RES   0.0000
301 Si101  44.4583   0.7778   8.8000 Si101 1 RES   0.0000
302 O201  45.8055   0.0000   9.3500 O201 1 RES   0.0000
303 O202  43.1110   0.0000   9.3500 O202 1 RES   0.0000
304 O203  44.4583   2.3335   9.3500 O203 1 RES   0.0000
305 Si102  44.4583   3.8891   9.9000 Si102 1 RES   0.0000
306 O204  44.4583   3.8891  11.5500 O204 1 RES   0.0000
307 O205  47.1527   5.4447   7.1500 O205 1 RES   0.0000
308 Si103  47.1527   5.4447   0.0000 Si103 1 RES   0.0000
309 O206  47.1527   7.0003   0.5500 O206 1 RES   0.0000
310 Si104  47.1527   8.5560   1.1000 Si104 1 RES   0.0000
311 O207  48.4999   4.6669   0.5500 O207 1 RES   0.0000
312 O208  45.8055   4.6669   0.5500 O208 1 RES   0.0000
313 O209  47.1527   8.5560   2.7500 O209 1 RES   0.0000
314 Si105  47.1527   8.5560   4.4000 Si105 1 RES   0.0000
315 O210  47.1527   7.0003   4.9500 O210 1 RES   0.0000
316 Si106  47.1527   5.4447   5.5000 Si106 1 RES   0.0000
317 O211  48.4999   4.6669   4.9500 O211 1 RES   0.0000
318 O212  45.8055   4.6669   4.9500 O212 1 RES   0.0000
319 Si107  47.1527   5.4447   8.8000 Si107 1 RES   0.0000
320 O213  48.4999   4.6669   9.3500 O213 1 RES   0.0000
321 O214  45.8055   4.6669   9.3500 O214 1 RES   0.0000
322 O215  47.1527   7.0003   9.3500 O215 1 RES   0.0000
323 Si108  47.1527   8.5560   9.9000 Si108 1 RES   0.0000
324 O216  47.1527   8.5560  11.5500 O216 1 RES   0.0000
325 O217  49.8471   0.7778   7.1500 O217 1 RES   0.0000
326 Si109  49.8471   0.7778   0.0000 Si109 1 RES   0.0000
327 O218  49.8471   2.3335   0.5500 O218 1 RES   0.0000
328 Si110  49.8471   3.8891   1.1000 Si110 1 RES   0.0000
329 O219  51.1944   0.0000   0.5500 O219 1 RES   0.0000
330 O220  48.4999   0.0000   0.5500 O220 1 RES   0.0000
331 O221  49.8471   3.8891   2.7500 O221 1 RES   0.0000
332 Si111  49.8471   3.8891   4.4000 Si111 1 RES   0.0000
333 O222  49.8471   2.3335   4.9500 O222 1 RES   0.0000
334 Si112  49.8471   0.7778   5.5000 Si112 1 RES   0.0000
335 O223  51.1944   0.0000   4.9500 O223 1 RES   0.0000
336 O224  48.4999   0.0000   4.9500 O224 1 RES   0.0000
337 Si113  49.8471   0.7778   8.8000 Si113 1 RES   0.0000
338 O225  51.1944   0.0000   9.3500 O225 1 RES   0.0000
339 O226  48.4999   0.0000   9.3500 O226 1 RES   0.0000
340 O227  49.8471   2.3335   9.3500 O227 1 RES   0.0000
341 Si114  49.8471   3.8891   9.9000 Si114 1 RES   0.0000
342 O228  49.8471   3.8891  11.5500 O228 1 RES   0.0000
343 O229  52.5416   5.4447   7.1500 O229 1 RES   0.0000
344 Si115  52.5416   5.4447   0.0000 Si115 1 RES   0.0000
345 O230  52.5416   7.0003   0.5500 O230 1 RES   0.0000
346 Si116  52.5416   8.5560   1.1000 Si116 1 RES   0.0000
347 O231  53.8888   4.6669   0.5500 O231 1 RES   0.0000
348 O232  51.1944   4.6669   0.5500 O232 1 RES   0.0000
349 O233  52.5416   8.5560   2.7500 O233 1 RES   0.0000
350 Si117  52.5416   8.5560   4.4000 Si117 1 RES   0.0000
351 O234  52.5416   7.0003   4.9500 O234 1 RES   0.0000
352 Si118  52.5416   5.4447   5.5000 Si118 1 RES   0.0000
353 O235  53.8888   4.6669   4.9500 O235 1 RES   0.0000
354 O236  51.1944   4.6669   4.9500 O236 1 RES   0.0000
355 Si119  52.5416   5.4447   8.8000 Si119 1 RES   0.0000
356 O237  53.8888   4.6669   9.3500 O237 1 RES   0.0000
357 O238  51.1944   4.6669   9.3500 O238 1 RES   0.0000
358 O239  52.5416   7.0003   9.3500 O239 1 RES   0.0000
359 Si120  52.5416   8.5560   9.9000 Si120 1 RES   0.0000
360 O240  52.5416   8.5560  11.5500 O240 1 RES   0.0000
361 O241   1.3472  10.1116   7.1500 O241 1 RES   0.0000
362 Si121   1.3472  10.1116   0.0000 Si121 1 RES   0.0000
363 O242   1.3472  11.6672   0.5500 O242 1 RES   0.0000
364 Si122   1.3472  13.2229   1.1000 Si122 1 RES   0.0000
365 O243   2.6944   9.3338   0.5500 O243 1 RES   0.0000
366 O244   0.0000   9.3338   0.5500 O244 1 RES   0.0000
367 O245   1.3472  13.2229   2.7500 O245 1 RES   0.0000
368 Si123   1.3472  13.2229   4.4000 Si123 1 RES   0.0000
369 O246   1.3472  11.6672   4.9500 O246 1 RES   0.0000
370 Si124   1.3472  10.1116   5.5000 Si124 1 RES   0.0000
371 O247   2.6944   9.3338   4.9500 O247 1 RES   0.0000
372 O248   0.0000   9.3338   4.9500 O248 1 RES   0.0000
373 Si125   1.3472  10.1116   8.8000 Si125 1 RES   0.0000
374 O249   2.6944   9.3338   9.3500 O249 1 RES   0.0000
375 O250   0.0000   9.3338   9.3500 O250 1 RES   0.0000
376 O251   1.3472  11.6672   9.3500 O251 1 RES   0.0000
377 Si126   1.3472  13.2229   9.9000 Si126 1 RES   0.0000
378 O252   1.3472  13.2229  11.5500 O252 1 RES   0.0000
379 O253   4.0417  14.7785   7.1500 O253 1 RES   0.0000
380 Si127   4.0417  14.7785   0.0000 Si127 1 RES   0.0000
381 O254   4.0417  16.3341   0.5500 O254 1 RES   0.0000
382 Si128   4.0417  17.8898   1.1000 Si128 1 RES   0.0000
383 O255   5.3889  14.0007   0.5500 O255 1 RES   0.0000
384 O256   2.6944  14.0007   0.5500 O256 1 RES   0.0000
385 O257   4.0417  17.8898   2.7500 O257 1 RES   0.0000
386 Si129   4.0417  17.8898   4.4000 Si129 1 RES   0.0000
387 O258   4.0417  16.3341   4.9500 O258 1 RES   0.0000
388 Si130   4.0417  14.7785   5.5000 Si130 1 RES   0.0000
389 O259   5.3889  14.0007   4.9500 O259 1 RES   0.0000
390 O260   2.6944  14.0007   4.9500 O260 1 RES   0.0000
391 Si131   4.0417  14.7785   8.8000 Si131 1 RES   0.0000
392 O261   5.3889  14.0007   9.3500 O261 1 RES   0.0000
393 O262   2.6944  14.0007   9.3500 O262 1 RES   0.0000
394 O263   4.0417  16.3341   9.3500 O263 1 RES   0.0000
395 Si132   4.0417  17.8898   9.9000 Si132 1 RES   0.0000
396 O264   4.0417  17.8898  11.5500 O264 1 RES   0.0000
397 O265   6.7361  10.1116   7.1500 O265 1 RES   0.0000
398 Si133   6.7361  10.1116   0.0000 Si133 1 RES   0.0000
399 O266   6.7361  11.6672   0.5500 O266 1 RES   0.0000
400 Si134   6.7361  13.2229   1.1000 Si134 1 RES   0.0000
401 O267   8.0833   9.3338   0.5500 O267 1 RES   0.0000
402 O268   5.3889   9.3338   0.5500 O268 1 RES   0.0000
403 O269   6.7361  13.2229   2.7500 O269 1 RES   0.0000
404 Si135   6.7361  13.2229   4.4000 Si135 1 RES   0.0000
405 O270   6.7361  11.6672   4.9500 O270 1 RES   0.0000
406 Si136   6.7361  10.1116   5.5000 Si136 1 RES   0.0000
407 O271   8.0833   9.3338   4.9500 O271 1 RES   0.0000
408 O272   5.3889   9.3338   4.9500 O272 1 RES   0.0000
409 Si137   6.7361  10.1116   8.8000 Si137 1 RES   0.0000
410 O273   8.0833   9.3338   9.3500 O273 1 RES   0.0000
411 O274   5.3889   9.3338   9.3500 O274 1 RES   0.0000
412 O275   6.7361  11.6672   9.3500 O275 1 RES   0.0000
413 Si138   6.7361  13.2229   9.9000 Si138 1 RES   0.0000
414 O276   6.7361  13.2229  11.5500 O276 1 RES   0.0000
415 O277   9.4305  14.7785   7.1500 O277 1 RES   0.0000
416 Si139   9.4305  14.7785   0.0000 Si139 1 RES   0.0000
417 O278   9.4305  16.3341   0.5500 O278 1 RES   0.0000
418 Si140   9.4305  17.8898   1.1000 Si140 1 RES   0.0000
419 O279  10.7778  14.0007   0.5500 O279 1 RES   0.0000
420 O280   8.0833  14.0007   0.5500 O280 1 RES   0.0000
421 O281   9.4305  17.8898   2.7500 O281 1 RES   0.0000
422 Si141   9.4305  17.8898   4.4000 Si141 1 RES   0.0000
423 O282   9.4305  16.3341   4.9500 O282 1 RES   0.0000
424 Si142   9.4305  14.7785   5.5000 Si142 1 RES   0.0000
425 O283  10.7778  14.0007   4.9500 O283 1 RES   0.0000
426 O284   8.0833  14.0007   4.9500 O284 1 RES   0.0000
427 Si143   9.4305  14.7785   8.8000 Si143 1 RES   0.0000
428 O285  10.7778  14.0007   9.3500 O285 1 RES   0.0000
429 O286   8.0833  14.0007   9.3500 O286 1 RES   0.0000
430 O287   9.4305  16.3341   9.3500 O287 1 RES   0.0000
431 Si144   9.4305  17.8898   9.9000 Si144 1 RES   0.0000
432 O288   9.4305  17.8898  11.5500 O288 1 RES   0.0000
433 O289  12.1250  10.1116   7.1500 O289 1 RES   0.0000
434 Si145  12.1250  10.1116   0.0000 Si145 1 RES   0.0000
435 O290  12.1250  11.6672   0.5500 O290 1 RES   0.0000
436 Si146  12.1250  13.2229   1.1000 Si146 1 RES   0.0000
437 O291  13.4722   9.3338   0.5500 O291 1 RES   0.0000
438 O292  10.7778   9.3338   0.5500 O292 1 RES   0.0000
439 O293  12.1250  13.2229   2.7500 O293 1 RES   0.0000
440 Si147  12.1250  13.2229   4.4000 Si147 1 RES   0.0000
441 O294  12.1250  11.6672   4.9500 O294 1 RES   0.0000
442 Si148  12.1250  10.1116   5.5000 Si148 1 RES   0.0000
443 O295  13.4722   9.3338   4.9500 O295 1 RES   0.0000
444 O296  10.7778   9.3338   4.9500 O296 1 RES   0.0000
445 Si149  12.1250  10.1116   8.8000 Si149 1 RES   0.0000
446 O297  13.4722   9.3338   9.3500 O297 1 RES   0.0000
447 O298  10.7778   9.3338   9.3500 O298 1 RES   0.0000
448 O299  12.1250  11.6672   9.3500 O299 1 RES   0.0000
449 Si150  12.1250  13.2229   9.9000 Si150 1 RES   0.0000
450 O300  12.1250  13.2229  11.5500 O300 1 RES   0.0000
451 O301  14.8194  14.7785   7.1500 O301 1 RES   0.0000
452 Si151  14.8194  14.7785   0.0000 Si151 1 RES   0.0000
453 O302  14.8194  16.3341   0.5500 O302 1 RES   0.0000
454 Si152  14.8194  17.8898   1.1000 Si152 1 RES   0.0000
455 O303  16.1666  14.0007   0.5500 O303 1 RES   0.0000
456 O304  13.4722  14.0007   0.5500 O304 1 RES   0.0000
457 O305  14.8194  17.8898   2.7500 O305 1 RES   0.0000
458 Si153  14.8194  17.8898   4.4000 Si153 1 RES   0.0000
459 O306  14.8194  16.3341   4.9500 O306 1 RES   0.0000
460 Si154  14.8194  14.7785   5.5000 Si154 1 RES   0.0000
461 O307  16.1666  14.0007   4.9500 O307 1 RES   0.0000
462 O308  13.4722  14.0007   4.9500 O308 1 RES   0.0000
463 Si155  14.8194  14.7785   8.8000 Si155 1 RES   0.0000
464 O309  16.1666  14.0007   9.3500 O309 1 RES   0.0000
465 O310  13.4722  14.0007   9.3500 O310 1 RES   0.0000
466 O311  14.8194  16.3341   9.3500 O311 1 RES   0.0000
467 Si156  14.8194  17.8898   9.9000 Si156 1 RES   0.0000
468 O312  14.8194  17.8898  11.5500 O312 1 RES   0.0000
469 O313  17.5139  10.1116   7.1500 O313 1 RES   0.0000
470 Si157  17.5139  10.1116   0.0000 Si157 1 RES   0.0000
471 O314  17.5139  11.6672   0.5500 O314 1 RES   0.0000
472 Si158  17.5139  13.2229   1.1000 Si158 1 RES   0.0000
473 O315  18.8611   9.3338   0.5500 O315 1 RES   0.0000
474 O316  16.1666   9.3338   0.5500 O316 1 RES   0.0000
475 O317  17.5139  13.2229   2.7500 O317 1 RES   0.0000
476 Si159  17.5139  13.2229   4.4000 Si159 1 RES   0.0000
477 O318  17.5139  11.6672   4.9500 O318 1 RES   0.0000
478 Si160  17.5139  10.1116   5.5000 Si160 1 RES   0.0000
479 O319  18.8611   9.3338   4.9500 O319 1 RES   0.0000
480 O320  16.1666   9.3338   4.9500 O320 1 RES   0.0000
481 Si161  17.5139  10.1116   8.8000 Si161 1 RES   0.0000
482 O321  18.8611   9.3338   9.3500 O321 1 RES   0.0000
483 O322  16.1666   9.3338   9.3500 O322 1 RES   0.0000
484 O323  17.5139  11.6672   9.3500 O323 1 RES   0.0000
485 Si162  17.5139  13.2229   9.9000 Si162 1 RES   0.0000
486 O324  17.5139  13.2229  11.5500 O324 1 RES   0.0000
487 O325  20.2083  14.7785   7.1500 O325 1 RES   0.0000
488 Si163  20.2083  14.7785   0.0000 Si163 1 RES   0.0000
489 O326  20.2083  16.3341   0.5500 O326 1 RES   0.0000
490 Si164  20.2083  17.8898   1.1000 Si164 1 RES   0.0000
491 O327  21.5555  14.0007   0.5500 O327 1 RES   0.0000
492 O328  18.8611  14.0007   0.5500 O328 1 RES   0.0000
493 O329  20.2083  17.8898   2.7500 O329 1 RES   0.0000
494 Si165  20.2083  17.8898   4.4000 Si165 1 RES   0.0000
495 O330  20.2083  16.3341   4.9500 O330 1 RES   0.0000
496 Si166  20.2083  14.7785   5.5000 Si166 1 RES   0.0000
497 O331  21.5555  14.0007   4.9500 O331 1 RES   0.0000
498 O332  18.8611  14.0007   4.9500 O332 1 RES   0.0000
499 Si167  20.2083  14.7785   8.8000 Si167 1 RES   0.0000
500 O333  21.5555  14.0007   9.3500 O333 1 RES   0.0000
501 O334  18.8611  14.0007   9.3500 O334 1 RES   0.0000
502 O335  20.2083  16.3341   9.3500 O335 1 RES   0.0000
503 Si168  20.2083  17.8898   9.9000 Si168 1 RES   0.0000
504 O336  20.2083  17.8898  11.5500 O336 1 RES   0.0000
505 O337  22.9027  10.1116   7.1500 O337 1 RES   0.0000
506 Si169  22.9027  10.1116   0.0000 Si169 1 RES   0.0000
507 O338  22.9027  11.6672   0.5500 O338 1 RES   0.0000
508 Si170  22.9027  13.2229   1.1000 Si170 1 RES   0.0000
509 O339  24.2500   9.3338   0.5500 O339 1 RES   0.0000
510 O340  21.5555   9.3338   0.5500 O340 1 RES   0.0000
511 O341  22.9027  13.2229   2.7500 O341 1 RES   0.0000
512 Si171  22.9027  13.2229   4.4000 Si171 1 RES   0.0000
513 O342  22.9027  11.6672   4.9500 O342 1 RES   0.0000
514 Si172  22.9027  10.1116   5.5000 Si172 1 RES   0.0000
515 O343  24.2500   9.3338   4.9500 O343 1 RES   0.0000
516 O344  21.5555   9.3338   4.9500 O344 1 RES   0.0000
517 Si173  22.9027  10.1116   8.8000 Si173 1 RES   0.0000
518 O345  24.2500   9.3338   9.3500 O345 1 RES   0.0000
519 O346  21.5555   9.3338   9.3500 O346 1 RES   0.0000
520 O347  22.9027  11.6672   9.3500 O347 1 RES   0.0000
521 Si174  22.9027  13.2229   9.9000 Si174 1 RES   0.0000
522 O348  22.9027  13.2229  11.5500 O348 1 RES   0.0000
523 O349  25.5972  14.7785   7.1500 O349 1 RES   0.0000
524 Si175  25.5972  14.7785   0.0000 Si175 1 RES   0.0000
525 O350  25.5972  16.3341   0.5500 O350 1 RES   0.0000
526 Si176  25.5972  17.8898   1.1000 Si176 1 RES   0.0000
527 O351  26.9444  14.0007   0.5500 O351 1 RES   0.0000
528 O352  24.2500  14.0007   0.5500 O352 1 RES   0.0000
529 O353  25.5972  17.8898   2.7500 O353 1 RES   0.0000
530 Si177  25.5972  17.8898   4.4000 Si177 1 RES   0.0000
531 O354  25.5972  16.3341   4.9500 O354 1 RES   0.0000
532 Si178  25.5972  14.7785   5.5000 Si178 1 RES   0.0000
533 O355  26.9444  14.0007   4.9500 O355 1 RES   0.0000
534 O356  24.2500  14.0007   4.9500 O356 1 RES   0.0000
535 Si179  25.5972  14.7785   8.8000 Si179 1 RES   0.0000
536 O357  26.9444  14.0007   9.3500 O357 1 RES   0.0000
537 O358  24.2500  14.0007   9.3500 O358 1 RES   0.0000
538 O359  25.5972  16.3341   9.3500 O359 1 RES   0.0000
539 Si180  25.5972  17.8898   9.9000 Si180 1 RES   0.0000
540 O360  25.5972  17.8898  11.5500 O360 1 RES   0.0000
541 O361  28.2916  10.1116   7.1500 O361 1 RES   0.0000
542 Si181  28.2916  10.1116   0.0000 Si181 1 RES   0.0000
543 O362  28.2916  11.6672   0.5500 O362 1 RES   0.0000
544 Si182  28.2916  13.2229   1.1000 Si182 1 RES   0.0000
545 O363  29.6388   9.3338   0.5500 O363 1 RES   0.0000
546 O364  26.9444   9.3338   0.5500 O364 1 RES   0.0000
547 O365  28.2916  13.2229   2.7500 O365 1 RES   0.0000
548 Si183  28.2916  13.2229   4.4000 Si183 1 RES   0.0000
549 O366  28.2916  11.6672   4.9500 O366 1 RES   0.0000
550 Si184  28.2916  10.1116   5.5000 Si184 1 RES   0.0000
551 O367  29.6388   9.3338   4.9500 O367 1 RES   0.0000
552 O368  26.9444   9.3338   4.9500 O368 1 RES   0.0000
553 Si185  28.2916  10.1116   8.8000 Si185 1 RES   0.0000
554 O369  29.6388   9.3338   9.3500 O369 1 RES   0.0000
555 O370  26.9444   9.3338   9.3500 O370 1 RES   0.0000
556 O371  28.2916  11.6672   9.3500 O371 1 RES   0.0000
557 Si186  28.2916  13.2229   9.9000 Si186 1 RES   0.0000
558 O372  28.2916  13.2229  11.5500 O372 1 RES   0.0000
559 O373  30.9861  14.7785   7.1500 O373 1 RES   0.0000
560 Si187  30.9861  14.7785   0.0000 Si187 1 RES   0.0000
561 O374  30.9861  16.3341   0.5500 O374 1 RES   0.0000
562 Si188  30.9861  17.8898   1.1000 Si188 1 RES   0.0000
563 O375  32.3333  14.0007   0.5500 O375 1 RES   0.0000
564 O376  29.6388  14.0007   0.5500 O376 1 RES   0.0000
565 O377  30.9861  17.8898   2.7500 O377 1 RES   0.0000
566 Si189  30.9861  17.8898   4.4000 Si189 1 RES   0.0000
567 O378  30.9861  16.3341   4.9500 O378 1 RES   0.0000
568 Si190  30.9861  14.7785   5.5000 Si190 1 RES   0.0000
569 O379  32.3333  14.0007   4.9500 O379 1 RES   0.0000
570 O380  29.6388  14.0007   4.9500 O380 1 RES   0.0000
571 Si191  30.9861  14.7785   8.8000 Si191 1 RES   0.0000
572 O381  32.3333  14.0007   9.3500 O381 1 RES   0.0000
573 O382  29.6388  14.0007   9.3500 O382 1 RES   0.0000
574 O383  30.9861  16.3341   9.3500 O383 1 RES   0.0000
575 Si192  30.9861  17.8898   9.9000 Si192 1 RES   0.0000
576 O384  30.9861  17.8898  11.5500 O384 1 RES   0.0000
577 O385  33.6805  10.1116   7.1500 O385 1 RES   0.0000
578 Si193  33.6805  10.1116   0.0000 Si193 1 RES   0.0000
579 O386  33.6805  11.6672   0.5500 O386 1 RES   0.0000
580 Si194  33.6805  13.2229   1.1000 Si194 1 RES   0.0000
581 O387  35.0277   9.3338   0.5500 O387 1 RES   0.0000
582 O388  32.3333   9.3338   0.5500 O388 1 RES   0.0000
583 O389  33.6805  13.2229   2.7500 O389 1 RES   0.0000
584 Si195  33.6805  13.2229   4.4000 Si195 1 RES   0.0000
585 O390  33.6805  11.6672   4.9500 O390 1 RES   0.0000
586 Si196  33.6805  10.1116   5.5000 Si196 1 RES   0.0000
587 O391  35.0277   9.3338   4.9500 O391 1 RES   0.0000
588 O392  32.3333   9.3338   4.9500 O392 1 RES   0.0000
589 Si197  33.6805  10.1116   8.8000 Si197 1 RES   0.0000
590 O393  35.0277   9.3338   9.3500 O393 1 RES   0.0000
591 O394  32.3333   9.3338   9.3500 O394 1 RES   0.0000
592 O395  33.6805  11.6672   9.3500 O395 1 RES   0.0000
593 Si198  33.6805  13.2229   9.9000 Si198 1 RES   0.0000
594 O396  33.6805  13.2229  11.5500 O396 1 RES   0.0000
595 O397  36.3749  14.7785   7.1500 O397 1 RES   0.0000
596 Si199  36.3749  14.7785   0.0000 Si199 1 RES   0.0000
597 O398  36.3749  16.3341   0.5500 O398 1 RES   0.0000
598 Si200  36.3749  17.8898   1.1000 Si200 1 RES   0.0000
599 O399  37.7222  14.0007   0.5500 O399 1 RES   0.0000
600 O400  35.0277  14.0007   0.5500 O400 1 RES   0.0000
601 O401  36.3749  17.8898   2.7500 O401 1 RES   0.0000
602 Si201  36.3749  17.8898   4.4000 Si201 1 RES   0.0000
603 O402  36.3749  16.3341   4.9500 O402 1 RES   0.0000
604 Si202  36.3749  14.7785   5.5000 Si202 1 RES   0.0000
605 O403  37.7222  14.0007   4.9500 O403 1 RES   0.0000
606 O404  35.0277  14.0007   4.9500 O404 1 RES   0.0000
607 Si203  36.3749  14.7785   8.8000 Si203 1 RES   0.0000
608 O405  37.7222  14.0007   9.3500 O405 1 RES   0.0000
609 O406  35.0277  14.0007   9.3500 O406 1 RES   0.0000
610 O407  36.3749  16.3341   9.3500 O407 1 RES   0.0000
611 Si204  36.3749  17.8898   9.9000 Si204 1 RES   0.0000
612 O408  36.3749  17.8898  11.5500 O408 1 RES   0.0000
613 O409  39.0694  10.1116   7.1500 O409 1 RES   0.0000
614 Si205  39.0694  10.1116   0.0000 Si205 1 RES   0.0000
615 O410  39.0694  11.6672   0.5500 O410 1 RES   0.0000
616 Si206  39.0694  13.2229   1.1000 Si206 1 RES   0.0000
617 O411  40.4166   9.3338   0.5500 O411 1 RES   0.0000
618 O412  37.7222   9.3338   0.5500 O412 1 RES   0.0000
619 O413  39.0694  13.2229   2.7500 O413 1 RES   0.0000
620 Si207  39.0694  13.2229   4.4000 Si207 1 RES   0.0000
621 O414  39.0694  11.6672   4.9500 O414 1 RES   0.0000
622 Si208  39.0694  10.1116   5.5000 Si208 1 RES   0.0000
623 O415  40.4166   9.3338   4.9500 O415 1 RES   0.0000
624 O416  37.7222   9.3338   4.9500 O416 1 RES   0.0000
625 Si209  39.0694  10.1116   8.8000 Si209 1 RES   0.0000
626 O417  40.4166   9.3338   9.3500 O417 1 RES   0.0000
627 O418  37.7222   9.3338   9.3500 O418 1 RES   0.0000
628 O419  39.0694  11.6672   9.3500 O419 1 RES   0.0000
629 Si210  39.0694  13.2229   9.9000 Si210 1 RES   0.0000
630 O420  39.0694  13.2229  11.5500 O420 1 RES   0.0000
631 O421  41.7638  14.7785   7.1500 O421 1 RES   0.0000
632 Si211  41.7638  14.7785   0.0000 Si211 1 RES   0.0000
633 O422  41.7638  16.3341   0.5500 O422 1 RES   0.0000
634 Si212  41.7638  17.8898   1.1000 Si212 1 RES   0.0000
635 O423  43.1110  14.0007   0.5500 O423 1 RES   0.0000
636 O424  40.4166  14.0007   0.5500 O424 1 RES   0.0000
637 O425  41.7638  17.8898   2.7500 O425 1 RES   0.0000
638 Si213  41.7638  17.8898   4.4000 Si213 1 RES   0.0000
639 O426  41.7638  16.3341   4.9500 O426 1 RES   0.0000
640 Si214  41.7638  14.7785   5.5000 Si214 1 RES   0.0000
641 O427  43.1110  14.0007   4.9500 O427 1 RES   0.0000
642 O428  40.4166  14.0007   4.9500 O428 1 RES   0.0000
643 Si215  41.7638  14.7785   8.8000 Si215 1 RES   0.0000
644 O429  43.1110  14.0007   9.3500 O429 1 RES   0.0000
645 O430  40.4166  14.0007   9.3500 O430 1 RES   0.0000
646 O431  41.7638  16.3341   9.3500 O431 1 RES   0.0000
647 Si216  41.7638  17.8898   9.9000 Si216 1 RES   0.0000
648 O432  41.7638  17.8898  11.5500 O432 1 RES   0.0000
649 O433  44.4583  10.1116   7.1500 O433 1 RES   0.0000
650 Si217  44.4583  10.1116   0.0000 Si217 1 RES   0.0000
651 O434  44.4583  11.6672   0.5500 O434 1 RES   0.0000
652 Si218  44.4583  13.2229   1.1000 Si218 1 RES   0.0000
653 O435  45.8055   9.3338   0.5500 O435 1 RES   0.0000
654 O436  43.1110   9.3338   0.5500 O436 1 RES   0.0000
655 O437  44.4583  13.2229   2.7500 O437 1 RES   0.0000
656 Si219  44.4583  13.2229   4.4000 Si219 1 RES   0.0000
657 O438  44.4583  11.6672   4.9500 O438 1 RES   0.0000
658 Si220  44.4583  10.1116   5.5000 Si220 1 RES   0.0000
659 O439  45.8055   9.3338   4.9500 O439 1 RES   0.0000
660 O440  43.1110   9.3338   4.9500 O440 1 RES   0.0000
661 Si221  44.4583  10.1116   8.8000 Si221 1 RES   0.0000
662 O441  45.8055   9.3338   9.3500 O441 1 RES   0.0000
663 O442  43.1110   9.3338   9.3500 O442 1 RES   0.0000
664 O443  44.4583  11.6672   9.3500 O443 1 RES   0.0000
665 Si222  44.4583  13.2229   9.9000 Si222 1 RES   0.0000
666 O444  44.4583  13.2229  11.5500 O444 1 RES   0.0000
667 O445  47.1527  14.7785   7.1500 O445 1 RES   0.0000
668 Si223  47.1527  14.7785   0.0000 Si223 1 RES   0.0000
669 O446  47.1527  16.3341   0.5500 O446 1 RES   0.0000
670 Si224  47.1527  17.8898   1.1000 Si224 1 RES   0.0000
671 O447  48.4999  14.0007   0.5500 O447 1 RES   0.0000
672 O448  45.8055  14.0007   0.5500 O448 1 RES   0.0000
673 O449  47.1527  17.8898   2.7500 O449 1 RES   0.0000
674 Si225  47.1527  17.8898   4.4000 Si225 1 RES   0.0000
675 O450  47.1527  16.3341   4.9500 O450 1 RES   0.0000
676 Si226  47.1527  14.7785   5.5000 Si226 1 RES   0.0000
677 O451  48.4999  14.0007   4.9500 O451 1 RES   0.0000
678 O452  45.8055  14.0007   4.9500 O452 1 RES   0.0000
679 Si227  47.1527  14.7785   8.8000 Si227 1 RES   0.0000
680 O453  48.4999  14.0007   9.3500 O453 1 RES   0.0000
681 O454  45.8055  14.0007   9.3500 O454 1 RES   0.0000
682 O455  47.1527  16.3341   9.3500 O455 1 RES   0.0000
683 Si228  47.1527  17.8898   9.9000 Si228 1 RES   0.0000
684 O456  47.1527  17.8898  11.5500 O456 1 RES   0.0000
685 O457  49.8471  10.1116   7.1500 O457 1 RES   0.0000
686 Si229  49.8471  10.1116   0.0000 Si229 1 RES   0.0000
687 O458  49.8471  11.6672   0.5500 O458 1 RES   0.0000
688 Si230  49.8471  13.2229   1.1000 Si230 1 RES   0.0000
689 O459  51.1944   9.3338   0.5500 O459 1 RES   0.0000
690 O460  48.4999   9.3338   0.5500 O460 1 RES   0.0000
691 O461  49.8471  13.2229   2.7500 O461 1 RES   0.0000
692 Si231  49.8471  13.2229   4.4000 Si231 1 RES   0.0000
693 O462  49.8471  11.6672   4.9500 O462 1 RES   0.0000
694 Si232  49.8471  10.1116   5.5000 Si232 1 RES   0.0000
695 O463  51.1944   9.3338   4.9500 O463 1 RES   0.0000
696 O464  48.4999   9.3338   4.9500 O464 1 RES   0.0000
697 Si233  49.8471  10.1116   8.8000 Si233 1 RES   0.0000
698 O465  51.1944   9.3338   9.3500 O465 1 RES   0.0000
699 O466  48.4999   9.3338   9.3500 O466 1 RES   0.0000
700 O467  49.8471  11.6672   9.3500 O467 1 RES   0.0000
701 Si234  49.8471  13.2229   9.9000 Si234 1 RES   0.0000
702 O468  49.8471  13.2229  11.5500 O468 1 RES   0.0000
703 O469  52.5416  14.7785   7.1500 O469 1 RES   0.0000
704 Si235  52.5416  14.7785   0.0000 Si235 1 RES   0.0000
705 O470  52.5416  16.3341   0.5500 O470 1 RES   0.0000
706 Si236  52.5416  17.8898   1.1000 Si236 1 RES   0.0000
707 O471  53.8888  14.0007   0.5500 O471 1 RES   0.0000
708 O472  51.1944  14.0007   0.5500 O472 1 RES   0.0000
709 O473  52.5416  17.8898   2.7500 O473 1 RES   0.0000
710 Si237  52.5416  17.8898   4.4000 Si237 1 RES   0.0000
711 O474  52.5416  16.3341   4.9500 O474 1 RES   0.0000
712 Si238  52.5416  14.7785   5.5000 Si238 1 RES   0.0000
713 O475  53.8888  14.0007   4.9500 O475 1 RES   0.0000
714 O476  51.1944  14.0007   4.9500 O476 1 RES   0.0000
715 Si239  52.5416  14.7785   8.8000 Si239 1 RES   0.0000
716 O477  53.8888  14.0007   9.3500 O477 1 RES   0.0000
717 O478  51.1944  14.0007   9.3500 O478 1 RES   0.0000
718 O479  52.5416  16.3341   9.3500 O479 1 RES   0.0000
719 Si240  52.5416  17.8898   9.9000 Si240 1 RES   0.0000
720 O480  52.5416  17.8898  11.5500 O480 1 RES   0.0000
721 O481   1.3472  19.4454   7.1500 O481 1 RES   0.0000
722 Si241   1.3472  19.4454   0.0000 Si241 1 RES   0.0000
723 O482   1.3472  21.0010   0.5500 O482 1 RES   0.0000
724 Si242   1.3472  22.5567   1.1000 Si242 1 RES   0.0000
725 O483   2.6944  18.6676   0.5500 O483 1 RES   0.0000
726 O484   0.0000  18.6676   0.5500 O484 1 RES   0.0000
727 O485   1.3472  22.5567   2.7500 O485 1 RES   0.0000
728 Si243   1.3472  22.5567   4.4000 Si243 1 RES   0.0000
729 O486   1.3472  21.0010   4.9500 O486 1 RES   0.0000
730 Si244   1.3472  19.4454   5.5000 Si244 1 RES   0.0000
731 O487   2.6944  18.6676   4.9500 O487 1 RES   0.0000
732 O488   0.0000  18.6676   4.9500 O488 1 RES   0.0000
733 Si245   1.3472  19.4454   8.8000 Si245 1 RES   0.0000
734 O489   2.6944  18.6676   9.3500 O489 1 RES   0.0000
735 O490   0.0000  18.6676   9.3500 O490 1 RES   0.0000
736 O491   1.3472  21.0010   9.3500 O491 1 RES   0.0000
737 Si246   1.3472  22.5567   9.9000 Si246 1 RES   0.0000
738 O492   1.3472  22.5567  11.5500 O492 1 RES   0.0000
739 O493   4.0417  24.1123   7.1500 O493 1 RES   0.0000
740 Si247   4.0417  24.1123   0.0000 Si247 1 RES   0.0000
741 O494   4.0417  25.6679   0.5500 O494 1 RES   0.0000
742 Si248   4.0417  27.2236   1.1000 Si248 1 RES   0.0000
743 O495   5.3889  23.3345   0.5500 O495 1 RES   0.0000
744 O496   2.6944  23.3345   0.5500 O496 1 RES   0.0000
745 O497   4.0417  27.2236   2.7500 O497 1 RES   0.0000
746 Si249   4.0417  27.2236   4.4000 Si249 1 RES   0.0000
747 O498   4.0417  25.6679   4.9500 O498 1 RES   0.0000
748 Si250   4.0417  24.1123   5.5000 Si250 1 RES   0.0000
749 O499   5.3889  23.3345   4.9500 O499 1 RES   0.0000
750 O500   2.6944  23.3345   4.9500 O500 1 RES   0.0000
751 Si251   4.0417  24.1123   8.8000 Si251 1 RES   0.0000
752 O501   5.3889  23.3345   9.3500 O501 1 RES   0.0000
753 O502   2.6944  23.3345   9.3500 O502 1 RES   0.0000
754 O503   4.0417  25.6679   9.3500 O503 1 RES   0.0000
755 Si252   4.0417  27.2236   9.9000 Si252 1 RES   0.0000
756 O504   4.0417  27.2236  11.5500 O504 1 RES   0.0000
757 O505   6.7361  19.4454   7.1500 O505 1 RES   0.0000
758 Si253   6.7361  19.4454   0.0000 Si253 1 RES   0.0000
759 O506   6.7361  21.0010   0.5500 O506 1 RES   0.0000
760 Si254   6.7361  22.5567   1.1000 Si254 1 RES   0.0000
761 O507   8.0833  18.6676   0.5500 O507 1 RES   0.0000
762 O508   5.3889  18.6676   0.5500 O508 1 RES   0.0000
763 O509   6.7361  22.5567   2.7500 O509 1 RES   0.0000
764 Si255   6.7361  22.5567   4.4000 Si255 1 RES   0.0000
765 O510   6.7361  21.0010   4.9500 O510 1 RES   0.0000
766 Si256   6.7361  19.4454   5.5000 Si256 1 RES   0.0000
767 O511   8.0833  18.6676   4.9500 O511 1 RES   0.0000
768 O512   5.3889  18.6676   4.9500 O512 1 RES   0.0000
769 Si257   6.7361  19.4454   8.8000 Si257 1 RES   0.0000
770 O513   8.0833  18.6676   9.3500 O513 1 RES   0.0000
771 O514   5.3889  18.6676   9.3500 O514 1 RES   0.0000
772 O515   6.7361  21.0010   9.3500 O515 1 RES   0.0000
773 Si258   6.7361  22.5567   9.9000 Si258 1 RES   0.0000
774 O516   6.7361  22.5567  11.5500 O516 1 RES   0.0000
775 O517   9.4305  24.1123   7.1500 O517 1 RES   0.0000
776 Si259   9.4305  24.1123   0.0000 Si259 1 RES   0.0000
777 O518   9.4305  25.6679   0.5500 O518 1 RES   0.0000
778 Si260   9.4305  27.2236   1.1000 Si260 1 RES   0.0000
779 O519  10.7778  23.3345   0.5500 O519 1 RES   0.0000
780 O520   8.0833  23.3345   0.5500 O520 1 RES   0.0000
781 O521   9.4305  27.2236   2.7500 O521 1 RES   0.0000
782 Si261   9.4305  27.2236   4.4000 Si261 1 RES   0.0000
783 O522   9.4305  25.6679   4.9500 O522 1 RES   0.0000
784 Si262   9.4305  24.1123   5.5000 Si262 1 RES   0.0000
785 O523  10.7778  23.3345   4.9500 O523 1 RES   0.0000
786 O524   8.0833  23.3345   4.9500 O524 1 RES   0.0000
787 Si263   9.4305  24.1123   8.8000 Si263 1 RES   0.0000
788 O525  10.7778  23.3345   9.3500 O525 1 RES   0.0000
789 O526   8.0833  23.3345   9.3500 O526 1 RES   0.0000
790 O527   9.4305  25.6679   9.3500 O527 1 RES   0.0000
791 Si264   9.4305  27.2236   9.9000 Si264 1 RES   0.0000
792 O528   9.4305  27.2236  11.5500 O528 1 RES   0.0000
793 O529  12.1250  19.4454   7.1500 O529 1 RES   0.0000
794 Si265  12.1250  19.4454   0.0000 Si265 1 RES   0.0000
795 O530  12.1250  21.0010   0.5500 O530 1 RES   0.0000
796 Si266  12.1250  22.5567   1.1000 Si266 1 RES   0.0000
797 O531  13.4722  18.6676   0.5500 O531 1 RES   0.0000
798 O532  10.7778  18.6676   0.5500 O532 1 RES   0.0000
799 O533  12.1250  22.5567   2.7500 O533 1 RES   0.0000
800 Si267  12.1250  22.5567   4.4000 Si267 1 RES   0.0000
801 O534  12.1250  21.0010   4.9500 O534 1 RES   0.0000
802 Si268  12.1250  19.4454   5.5000 Si268 1 RES   0.0000
803 O535  13.4722  18.6676   4.9500 O535 1 RES   0.0000
804 O536  10.7778  18.6676   4.9500 O536 1 RES   0.0000
805 Si269  12.1250  19.4454   8.8000 Si269 1 RES   0.0000
806 O537  13.4722  18.6676   9.3500 O537 1 RES   0.0000
807 O538  10.7778  18.6676   9.3500 O538 1 RES   0.0000
808 O539  12.1250  21.0010   9.3500 O539 1 RES   0.0000
809 Si270  12.1250  22.5567   9.9000 Si270 1 RES   0.0000
810 O540  12.1250  22.5567  11.5500 O540 1 RES   0.0000
811 O541  14.8194  24.1123   7.1500 O541 1 RES   0.0000
812 Si271  14.8194  24.1123   0.0000 Si271 1 RES   0.0000
813 O542  14.8194  25.6679   0.5500 O542 1 RES   0.0000
814 Si272  14.8194  27.2236   1.1000 Si272 1 RES   0.0000
815 O543  16.1666  23.3345   0.5500 O543 1 RES   0.0000
816 O544  13.4722  23.3345   0.5500 O544 1 RES   0.0000
817 O545  14.8194  27.2236   2.7500 O545 1 RES   0.0000
818 Si273  14.8194  27.2236   4.4000 Si273 1 RES   0.0000
819 O546  14.8194  25.6679   4.9500 O546 1 RES   0.0000
820 Si274  14.8194  24.1123   5.5000 Si274 1 RES   0.0000
821 O547  16.1666  23.3345   4.9500 O547 1 RES   0.0000
822 O548  13.4722  23.3345   4.9500 O548 1 RES   0.0000
823 Si275  14.8194  24.1123   8.8000 Si275 1 RES   0.0000
824 O549  16.1666  23.3345   9.3500 O549 1 RES   0.0000
825 O550  13.4722  23.3345   9.3500 O550 1 RES   0.0000
826 O551  14.8194  25.6679   9.3500 O551 1 RES   0.0000
827 Si276  14.8194  27.2236   9.9000 Si276 1 RES   0.0000
828 O552  14.8194  27.2236  11.5500 O552 1 RES   0.0000
829 O553  17.5139  19.4454   7.1500 O553 1 RES   0.0000
830 Si277  17.5139  19.4454   0.0000 Si277 1 RES   0.0000
831 O554  17.5139  21.0010   0.5500 O554 1 RES   0.0000
832 Si278  17.5139  22.5567   1.1000 Si278 1 RES   0.0000
833 O555  18.8611  18.6676   0.5500 O555 1 RES   0.0000
834 O556  16.1666  18.6676   0.5500 O556 1 RES   0.0000
835 O557  17.5139  22.5567   2.7500 O557 1 RES   0.0000
836 Si279  17.5139  22.5567   4.4000 Si279 1 RES   0.0000
837 O558  17.5139  21.0010   4.9500 O558 1 RES   0.0000
838 Si280  17.5139  19.4454   5.5000 Si280 1 RES   0.0000
839 O559  18.8611  18.6676   4.9500 O559 1 RES   0.0000
840 O560  16.1666  18.6676   4.9500 O560 1 RES   0.0000
841 Si281  17.5139  19.4454   8.8000 Si281 1 RES   0.0000
842 O561  18.8611  18.6676   9.3500 O561 1 RES   0.0000
843 O562  16.1666  18.6676   9.3500 O562 1 RES   0.0000
844 O563  17.5139  21.0010   9.3500 O563 1 RES   0.0000
845 Si282  17.5139  22.5567   9.9000 Si282 1 RES   0.0000
846 O564  17.5139  22.5567  11.5500 O564 1 RES   0.0000
847 O565  20.2083  24.1123   7.1500 O565 1 RES   0.0000
848 Si283  20.2083  24.1123   0.0000 Si283 1 RES   0.0000
849 O566  20.2083  25.6679   0.5500 O566 1 RES   0.0000
850 Si284  20.2083  27.2236   1.1000 Si284 1 RES   0.0000
851 O567  21.5555  23.3345   0.5500 O567 1 RES   0.0000
852 O568  18.8611  23.3345   0.5500 O568 1 RES   0.0000
853 O569  20.2083  27.2236   2.7500 O569 1 RES   0.0000
854 Si285  20.2083  27.2236   4.4000 Si285 1 RES   0.0000
855 O570  20.2083  25.6679   4.9500 O570 1 RES   0.0000
856 Si286  20.2083  24.1123   5.5000 Si286 1 RES   0.0000
857 O571  21.5555  23.3345   4.9500 O571 1 RES   0.0000
858 O572  18.8611  23.3345   4.9500 O572 1 RES   0.0000
859 Si287  20.2083  24.1123   8.8000 Si287 1 RES   0.0000
860 O573  21.5555  23.3345   9.3500 O573 1 RES   0.0000
861 O574  18.8611  23.3345   9.3500 O574 1 RES   0.0000
862 O575  20.2083  25.6679   9.3500 O575 1 RES   0.0000
863 Si288  20.2083  27.2236   9.9000 Si288 1 RES   0.0000
864 O576  20.2083  27.2236  11.5500 O576 1 RES   0.0000
865 O577  22.9027  19.4454   7.1500 O577 1 RES   0.0000
866 Si289  22.9027  19.4454   0.0000 Si289 1 RES   0.0000
867 O578  22.9027  21.0010   0.5500 O578 1 RES   0.0000
868 Si290  22.9027  22.5567   1.1000 Si290 1 RES   0.0000
869 O579  24.2500  18.6676   0.5500 O579 1 RES   0.0000
870 O580  21.5555  18.6676   0.5500 O580 1 RES   0.0000
871 O581  22.9027  22.5567   2.7500 O581 1 RES   0.0000
872 Si291  22.9027  22.5567   4.4000 Si291 1 RES   0.0000
873 O582  22.9027  21.0010   4.9500 O582 1 RES   0.0000
874 Si292  22.9027  19.4454   5.5000 Si292 1 RES   0.0000
875 O583  24.2500  18.6676   4.9500 O583 1 RES   0.0000
876 O584  21.5555  18.6676   4.9500 O584 1 RES   0.0000
877 Si293  22.9027  19.4454   8.8000 Si293 1 RES   0.0000
878 O585  24.2500  18.6676   9.3500 O585 1 RES   0.0000
879 O586  21.5555  18.6676   9.3500 O586 1 RES   0.0000
880 O587  22.9027  21.0010   9.3500 O587 1 RES   0.0000
881 Si294  22.9027  22.5567   9.9000 Si294 1 RES   0.0000
882 O588  22.9027  22.5567  11.5500 O588 1 RES   0.0000
883 O589  25.5972  24.1123   7.1500 O589 1 RES   0.0000
884 Si295  25.5972  24.1123   0.0000 Si295 1 RES   0.0000
885 O590  25.5972  25.6679   0.5500 O590 1 RES   0.0000
886 Si296  25.5972  27.2236   1.1000 Si296 1 RES   0.0000
887 O591  26.9444  23.3345   0.5500 O591 1 RES   0.0000
888 O592  24.2500  23.3345   0.5500 O592 1 RES   0.0000
889 O593  25.5972  27.2236   2.7500 O593 1 RES   0.0000
890 Si297  25.5972  27.2236   4.4000 Si297 1 RES   0.0000
891 O594  25.5972  25.6679   4.9500 O594 1 RES   0.0000
892 Si298  25.5972  24.1123   5.5000 Si298 1 RES   0.0000
893 O595  26.9444  23.3345   4.9500 O595 1 RES   0.0000
894 O596  24.2500  23.3345   4.9500 O596 1 RES   0.0000
895 Si299  25.5972  24.1123   8.8000 Si299 1 RES   0.0000
896 O597  26.9444  23.3345   9.3500 O597 1 RES   0.0000
897 O598  24.2500  23.3345   9.3500 O598 1 RES   0.0000
898 O599  25.5972  25.6679   9.3500 O599 1 RES   0.0000
899 Si300  25.5972  27.2236   9.9000 Si300 1 RES   0.0000
900 O600  25.5972  27.2236  11.5500 O600 1 RES   0.0000
901 O601  28.2916  19.4454   7.1500 O601 1 RES   0.0000
902 Si301  28.2916  19.4454   0.0000 Si301 1 RES   0.0000
903 O602  28.2916  21.0010   0.5500 O602 1 RES   0.0000
904 Si302  28.2916  22.5567   1.1000 Si302 1 RES   0.0000
905 O603  29.6388  18.6676   0.5500 O603 1 RES   0.0000
906 O604  26.9444  18.6676   0.5500 O604 1 RES   0.0000
907 O605  28.2916  22.5567   2.7500 O605 1 RES   0.0000
908 Si303  28.2916  22.5567   4.4000 Si303 1 RES   0.0000
909 O606  28.2916  21.0010   4.9500 O606 1 RES   0.0000
910 Si304  28.2916  19.4454   5.5000 Si304 1 RES   0.0000
911 O607  29.6388  18.6676   4.9500 O607 1 RES   0.0000
912 O608  26.9444  18.6676   4.9500 O608 1 RES   0.0000
913 Si305  28.2916  19.4454   8.8000 Si305 1 RES   0.0000
914 O609  29.6388  18.6676   9.3500 O609 1 RES   0.0000
915 O610  26.9444  18.6676   9.3500 O610 1 RES   0.0000
916 O611  28.2916  21.0010   9.3500 O611 1 RES   0.0000
917 Si306  28.2916  22.5567   9.9000 Si306 1 RES   0.0000
918 O612  28.2916  22.5567  11.5500 O612 1 RES   0.0000
919 O613  30.9861  24.1123   7.1500 O613 1 RES   0.0000
920 Si307  30.9861  24.1123   0.0000 Si307 1 RES   0.0000
921 O614  30.9861  25.6679   0.5500 O614 1 RES   0.0000
922 Si308  30.9861  27.2236   1.1000 Si308 1 RES   0.0000
923 O615  32.3333  23.3345   0.5500 O615 1 RES   0.0000
924 O616  29.6388  23.3345   0.5500 O616 1 RES   0.0000
925 O617  30.9861  27.2236   2.7500 O617 1 RES   0.0000
926 Si309  30.9861  27.2236   4.4000 Si309 1 RES   0.0000
927 O618  30.9861  25.6679   4.9500 O618 1 RES   0.0000
928 Si310  30.9861  24.1123   5.5000 Si310 1 RES   0.0000
929 O619  32.3333  23.3345   4.9500 O619 1 RES   0.0000
930 O620  29.6388  23.3345   4.9500 O620 1 RES   0.0000
931 Si311  30.9861  24.1123   8.8000 Si311 1 RES   0.0000
932 O621  32.3333  23.3345   9.3500 O621 1 RES   0.0000
933 O622  29.6388  23.3345   9.3500 O622 1 RES   0.0000
934 O623  30.9861  25.6679   9.3500 O623 1 RES   0.0000
935 Si312  30.9861  27.2236   9.9000 Si312 1 RES   0.0000
936 O624  30.9861  27.2236  11.5500 O624 1 RES   0.0000
937 O625  33.6805  19.4454   7.1500 O625 1 RES   0.0000
938 Si313  33.6805  19.4454   0.0000 Si313 1 RES   0.0000
939 O626  33.6805  21.0010   0.5500 O626 1 RES   0.0000
940 Si314  33.6805  22.5567   1.1000 Si314 1 RES   0.0000
941 O627  35.0277  18.6676   0.5500 O627 1 RES   0.0000
942 O628  32.3333  18.6676   0.5500 O628 1 RES   0.0000
943 O629  33.6805  22.5567   2.7500 O629 1 RES   0.0000
944 Si315  33.6805  22.5567   4.4000 Si315 1 RES   0.0000
945 O630  33.6805  21.0010   4.9500 O630 1 RES   0.0000
946 Si316  33.6805  19.4454   5.5000 Si316 1 RES   0.0000
947 O631  35.0277  18.6676   4.9500 O631 1 RES   0.0000
948 O632  32.3333  18.6676   4.9500 O632 1 RES   0.0000
949 Si317  33.6805  19.4454   8.8000 Si317 1 RES   0.0000
950 O633  35.0277  18.6676   9.3500 O633 1 RES   0.0000
951 O634  32.3333  18.6676   9.3500 O634 1 RES   0.0000
952 O635  33.6805  21.0010   9.3500 O635 1 RES   0.0000
953 Si318  33.6805  22.5567   9.9000 Si318 1 RES   0.0000
954 O636  33.6805  22.5567  11.5500 O636 1 RES   0.0000
955 O637  36.3749  24.1123   7.1500 O637 1 RES   0.0000
956 Si319  36.3749  24.1123   0.0000 Si319 1 RES   0.0000
957 O638  36.3749  25.6679   0.5500 O638 1 RES   0.0000
958 Si320  36.3749  27.2236   1.1000 Si320 1 RES   0.0000
959 O639  37.7222  23.3345   0.5500 O639 1 RES   0.0000
960 O640  35.0277  23.3345   0.5500 O640 1 RES   0.0000
961 O641  36.3749  27.2236   2.7500 O641 1 RES   0.0000
962 Si321  36.3749  27.2236   4.4000 Si321 1 RES   0.0000
963 O642  36.3749  25.6679   4.9500 O642 1 RES   0.0000
964 Si322  36.3749  24.1123   5.5000 Si322 1 RES   0.0000
965 O643  37.7222  23.3345   4.9500 O643 1 RES   0.0000
966 O644  35.0277  23.3345   4.9500 O644 1 RES   0.0000
967 Si323  36.3749  24.1123   8.8000 Si323 1 RES   0.0000
968 O645  37.7222  23.3345   9.3500 O645 1 RES   0.0000
969 O646  35.0277  23.3345   9.3500 O646 1 RES   0.0000
970 O647  36.3749  25.6679   9.3500 O647 1 RES   0.0000
971 Si324  36.3749  27.2236   9.9000 Si324 1 RES   0.0000
972 O648  36.3749  27.2236  11.5500 O648 1 RES   0.0000
973 O649  39.0694  19.4454   7.1500 O649 1 RES   0.0000
974 Si325  39.0694  19.4454   0.0000 Si325 1 RES   0.0000
975 O650  39.0694  21.0010   0.5500 O650 1 RES   0.0000
976 Si326  39.0694  22.5567   1.1000 Si326 1 RES   0.0000
977 O651  40.4166  18.6676   0.5500 O651 1 RES   0.0000
978 O652  37.7222  18.6676   0.5500 O652 1 RES   0.0000
979 O653  39.0694  22.5567   2.7500 O653 1 RES   0.0000
980 Si327  39.0694  22.5567   4.4000 Si327 1 RES   0.0000
981 O654  39.0694  21.0010   4.9500 O654 1 RES   0.0000
982 Si328  39.0694  19.4454   5.5000 Si328 1 RES   0.0000
983 O655  40.4166  18.6676   4.9500 O655 1 RES   0.0000
984 O656  37.7222  18.6676   4.9500 O656 1 RES   0.0000
985 Si329  39.0694  19.4454   8.8000 Si329 1 RES   0.0000
986 O657  40.4166  18.6676   9.3500 O657 1 RES   0.0000
987 O658  37.7222  18.6676   9.3500 O658 1 RES   0.0000
988 O659  39.0694  21.0010   9.3500 O659 1 RES   0.0000
989 Si330  39.0694  22.5567   9.9000 Si330 1 RES   0.0000
990 O660  39.0694  22.5567  11.5500 O660 1 RES   0.0000
991 O661  41.7638  24.1123   7.1500 O661 1 RES   0.0000
992 Si331  41.7638  24.1123   0.0000 Si331 1 RES   0.0000
993 O662  41.7638  25.6679   0.5500 O662 1 RES   0.0000
994 Si332  41.7638  27.2236   1.1000 Si332 1 RES   0.0000
995 O663  43.1110  23.3345   0.5500 O663 1 RES   0.0000
996 O664  40.4166  23.3345   0.5500 O664 1 RES   0.0000
997 O665  41.7638  27.2236   2.7500 O665 1 RES   0.0000
998 Si333  41.7638  27.2236   4.4000 Si333 1 RES   0.0000
999 O666  41.7638  25.6679   4.9500 O666 1 RES   0.0000
1000 Si334  41.7638  24.1123   5.5000 Si334 1 RES   0.0000
1001 O667  43.1110  23.3345   4.9500 O667 1 RES   0.0000
1002 O668  40.4166  23.3345   4.9500 O668 1 RES   0.0000
1003 Si335  41.7638  24.1123   8.8000 Si335 1 RES   0.0000
1004 O669  43.1110  23.3345   9.3500 O669 1 RES   0.0000
1005 O670  40.4166  23.3345   9.3500 O670 1 RES   0.0000
1006 O671  41.7638  25.6679   9.3500 O671 1 RES   0.0000
1007 Si336  41.7638  27.2236   9.9000 Si336 1 RES   0.0000
1008 O672  41.7638  27.2236  11.5500 O672 1 RES   0.0000
1009 O673  44.4583  19.4454   7.1500 O673 1 RES   0.0000
1010 Si337  44.4583  19.4454   0.0000 Si337 1 RES   0.0000
1011 O674  44.4583  21.0010   0.5500 O674 1 RES   0.0000
1012 Si338  44.4583  22.5567   1.1000 Si338 1 RES   0.0000
1013 O675  45.8055  18.6676   0.5500 O675 1 RES   0.0000
1014 O676  43.1110  18.6676   0.5500 O676 1 RES   0.0000
1015 O677  44.4583  22.5567   2.7500 O677 1 RES   0.0000
1016 Si339  44.4583  22.5567   4.4000 Si339 1 RES   0.0000
1017 O678  44.4583  21.0010   4.9500 O678 1 RES   0.0000
1018 Si340  44.4583  19.4454   5.5000 Si340 1 RES   0.0000
1019 O679  45.8055  18.6676   4.9500 O679 1 RES   0.0000
1020 O680  43.1110  18.6676   4.9500 O680 1 RES   0.0000
1021 Si341  44.4583  19.4454   8.8000 Si341 1 RES   0.0000
1022 O681  45.8055  18.6676   9.3500 O681 1 RES   0.0000
1023 O682  43.1110  18.6676   9.3500 O682 1 RES   0.0000
1024 O683  44.4583  21.0010   9.3500 O683 1 RES   0.0000
1025 Si342  44.4583  22.5567   9.9000 Si342 1 RES   0.0000
1026 O684  44.4583  22.5567  11.5500 O684 1 RES   0.0000
1027 O685  47.1527  24.1123   7.1500 O685 1 RES   0.0000
1028 Si343  47.1527  24.1123   0.0000 Si343 1 RES   0.0000
1029 O686  47.1527  25.6679   0.5500 O686 1 RES   0.0000
1030 Si344  47.1527  27.2236   1.1000 Si344 1 RES   0.0000
1031 O687  48.4999  23.3345   0.5500 O687 1 RES   0.0000
1032 O688  45.8055  23.3345   0.5500 O688 1 RES   0.0000
1033 O689  47.1527  27.2236   2.7500 O689 1 RES   0.0000
1034 Si345  47.1527  27.2236   4.4000 Si345 1 RES   0.0000
1035 O690  47.1527  25.6679   4.9500 O690 1 RES   0.0000
1036 Si346  47.1527  24.1123   5.5000 Si346 1 RES   0.0000
1037 O691  48.4999  23.3345   4.9500 O691 1 RES   0.0000
1038 O692  45.8055  23.3345   4.9500 O692 1 RES   0.0000
1039 Si347  47.1527  24.1123   8.8000 Si347 1 RES   0.0000
1040 O693  48.4999  23.3345   9.3500 O693 1 RES   0.0000
1041 O694  45.8055  23.3345   9.3500 O694 1 RES   0.0000
1042 O695  47.1527  25.6679   9.3500 O695 1 RES   0.0000
1043 Si348  47.1527  27.2236   9.9000 Si348 1 RES   0.0000
1044 O696  47.1527  27.2236  11.5500 O696 1 RES   0.0000
1045 O697  49.8471  19.4454   7.1500 O697 1 RES   0.0000
1046 Si349  49.8471  19.4454   0.0000 Si349 1 RES   0.0000
1047 O698  49.8471  21.0010   0.5500 O698 1 RES   0.0000
1048 Si350  49.8471  22.5567   1.1000 Si350 1 RES   0.0000
1049 O699  51.1944  18.6676   0.5500 O699 1 RES   0.0000
1050 O700  48.4999  18.6676   0.5500 O700 1 RES   0.0000
1051 O701  49.8471  22.5567   2.7500 O701 1 RES   0.0000
1052 Si351  49.8471  22.5567   4.4000 Si351 1 RES   0.0000
1053 O702  49.8471  21.0010   4.9500 O702 1 RES   0.0000
1054 Si352  49.8471  19.4454   5.5000 Si352 1 RES   0.0000
1055 O703  51.1944  18.6676   4.9500 O703 1 RES   0.0000
1056 O704  48.4999  18.6676   4.9500 O704 1 RES   0.0000
1057 Si353  49.8471  19.4454   8.8000 Si353 1 RES   0.0000
1058 O705  51.1944  18.6676   9.3500 O705 1 RES   0.0000
1059 O706  48.4999  18.6676   9.3500 O706 1 RES   0.0000
1060 O707  49.8471  21.0010   9.3500 O707 1 RES   0.0000
1061 Si354  49.8471  22.5567   9.9000 Si354 1 RES   0.0000
1062 O708  49.8471  22.5567  11.5500 O708 1 RES   0.0000
1063 O709  52.5416  24.1123   7.1500 O709 1 RES   0.0000
1064 Si355  52.5416  24.1123   0.0000 Si355 1 RES   0.0000
1065 O710  52.5416  25.6679   0.5500 O710 1 RES   0.0000
1066 Si356  52.5416  27.2236   1.1000 Si356 1 RES   0.0000
1067 O711  53.8888  23.3345   0.5500 O711 1 RES   0.0000
1068 O712  51.1944  23.3345   0.5500 O712 1 RES   0.0000
1069 O713  52.5416  27.2236   2.7500 O713 1 RES   0.0000
1070 Si357  52.5416  27.2236   4.4000 Si357 1 RES   0.0000
1071 O714  52.5416  25.6679   4.9500 O714 1 RES   0.0000
1072 Si358  52.5416  24.1123   5.5000 Si358 1 RES   0.0000
1073 O715  53.8888  23.3345   4.9500 O715 1 RES   0.0000
1074 O716  51.1944  23.3345   4.9500 O716 1 RES   0.0000
1075 Si359  52.5416  24.1123   8.8000 Si359 1 RES   0.0000
1076 O717  53.8888  23.3345   9.3500 O717 1 RES   0.0000
1077 O718  51.1944  23.3345   9.3500 O718 1 RES   0.0000
1078 O719  52.5416  25.6679   9.3500 O719 1 RES   0.0000
1079 Si360  52.5416  27.2236   9.9000 Si360 1 RES   0.0000
1080 O720  52.5416  27.2236  11.5500 O720 1 RES   0.0000
1081 O721   1.3472  28.7792   7.1500 O721 1 RES   0.0000
1082 Si361   1.3472  28.7792   0.0000 Si361 1 RES   0.0000
1083 O722   1.3472  30.3348   0.5500 O722 1 RES   0.0000
1084 Si362   1.3472  31.8904   1.1000 Si362 1 RES   0.0000
1085 O723   2.6944  28.0013   0.5500 O723 1 RES   0.0000
1086 O724   0.0000  28.0013   0.5500 O724 1 RES   0.0000
1087 O725   1.3472  31.8904   2.7500 O725 1 RES   0.0000
1088 Si363   1.3472  31.8904   4.4000 Si363 1 RES   0.0000
1089 O726   1.3472  30.3348   4.9500 O726 1 RES   0.0000
1090 Si364   1.3472  28.7792   5.5000 Si364 1 RES   0.0000
1091 O727   2.6944  28.0013   4.9500 O727 1 RES   0.0000
1092 O728   0.0000  28.0013   4.9500 O728 1 RES   0.0000
1093 Si365   1.3472  28.7792   8.8000 Si365 1 RES   0.0000
1094 O729   2.6944  28.0013   9.3500 O729 1 RES   0.0000
1095 O730   0.0000  28.0013   9.3500 O730 1 RES   0.0000
1096 O731   1.3472  30.3348   9.3500 O731 1 RES   0.0000
1097 Si366   1.3472  31.8904   9.9000 Si366 1 RES   0.0000
1098 O732   1.3472  31.8904  11.5500 O732 1 RES   0.0000
1099 O733   4.0417  33.4461   7.1500 O733 1 RES   0.0000
1100 Si367   4.0417  33.4461   0.0000 Si367 1 RES   0.0000
1101 O734   4.0417  35.0017   0.5500 O734 1 RES   0.0000
1102 Si368   4.0417  36.5573   1.1000 Si368 1 RES   0.0000
1103 O735   5.3889  32.6683   0.5500 O735 1 RES   0.0000
1104 O736   2.6944  32.6683   0.5500 O736 1 RES   0.0000
1105 O737   4.0417  36.5573   2.7500 O737 1 RES   0.0000
1106 Si369   4.0417  36.5573   4.4000 Si369 1 RES   0.0000
1107 O738   4.0417  35.0017   4.9500 O738 1 RES   0.0000
1108 Si370   4.0417  33.4461   5.5000 Si370 1 RES   0.0000
1109 O739   5.3889  32.6683   4.9500 O739 1 RES   0.0000
1110 O740   2.6944  32.6683   4.9500 O740 1 RES   0.0000
1111 Si371   4.0417  33.4461   8.8000 Si371 1 RES   0.0000
1112 O741   5.3889  32.6683   9.3500 O741 1 RES   0.0000
1113 O742   2.6944  32.6683   9.3500 O742 1 RES   0.0000
1114 O743   4.0417  35.0017   9.3500 O743 1 RES   0.0000
1115 Si372   4.0417  36.5573   9.9000 Si372 1 RES   0.0000
1116 O744   4.0417  36.5573  11.5500 O744 1 RES   0.0000
1117 O745   6.7361  28.7792   7.1500 O745 1 RES   0.0000
1118 Si373   6.7361  28.7792   0.0000 Si373 1 RES   0.0000
1119 O746   6.7361  30.3348   0.5500 O746 1 RES   0.0000
1120 Si374   6.7361  31.8904   1.1000 Si374 1 RES   0.0000
1121 O747   8.0833  28.0013   0.5500 O747 1 RES   0.0000
1122 O748   5.3889  28.0013   0.5500 O748 1 RES   0.0000
1123 O749   6.7361  31.8904   2.7500 O749 1 RES   0.0000
1124 Si375   6.7361  31.8904   4.4000 Si375 1 RES   0.0000
1125 O750   6.7361  30.3348   4.9500 O750 1 RES   0.0000
1126 Si376   6.7361  28.7792   5.5000 Si376 1 RES   0.0000
1127 O751   8.0833  28.0013   4.9500 O751 1 RES   0.0000
1128 O752   5.3889  28.0013   4.9500 O752 1 RES   0.0000
1129 Si377   6.7361  28.7792   8.8000 Si377 1 RES   0.0000
1130 O753   8.0833  28.0013   9.3500 O753 1 RES   0.0000
1131 O754   5.3889  28.0013   9.3500 O754 1 RES   0.0000
1132 O755   6.7361  30.3348   9.3500 O755 1 RES   0.0000
1133 Si378   6.7361  31.8904   9.9000 Si378 1 RES   0.0000
1134 O756   6.7361  31.8904  11.5500 O756 1 RES   0.0000
1135 O757   9.4305  33.4461   7.1500 O757 1 RES   0.0000
1136 Si379   9.4305  33.4461   0.0000 Si379 1 RES   0.0000
1137 O758   9.4305  35.0017   0.5500 O758 1 RES   0.0000
1138 Si380   9.4305  36.5573   1.1000 Si380 1 RES   0.0000
1139 O759  10.7778  32.6683   0.5500 O759 1 RES   0.0000
1140 O760   8.0833  32.6683   0.5500 O760 1 RES   0.0000
1141 O761   9.4305  36.5573   2.7500 O761 1 RES   0.0000
1142 Si381   9.4305  36.5573   4.4000 Si381 1 RES   0.0000
1143 O762   9.4305  35.0017   4.9500 O762 1 RES   0.0000
1144 Si382   9.4305  33.4461   5.5000 Si382 1 RES   0.0000
1145 O763  10.7778  32.6683   4.9500 O763 1 RES   0.0000
1146 O764   8.0833  32.6683   4.9500 O764 1 RES   0.0000
1147 Si383   9.4305  33.4461   8.8000 Si383 1 RES   0.0000
1148 O765  10.7778  32.6683   9.3500 O765 1 RES   0.0000
1149 O766   8.0833  32.6683   9.3500 O766 1 RES   0.0000
1150 O767   9.4305  35.0017   9.3500 O767 1 RES   0.0000
1151 Si384   9.4305  36.5573   9.9000 Si384 1 RES   0.0000
1152 O768   9.4305  36.5573  11.5500 O768 1 RES   0.0000
1153 O769  12.1250  28.7792   7.1500 O769 1 RES   0.0000
1154 Si385  12.1250  28.7792   0.0000 Si385 1 RES   0.0000
1155 O770  12.1250  30.3348   0.5500 O770 1 RES   0.0000
1156 Si386  12.1250  31.8904   1.1000 Si386 1 RES   0.0000
1157 O771  13.4722  28.0013   0.5500 O771 1 RES   0.0000
1158 O772  10.7778  28.0013   0.5500 O772 1 RES   0.0000
1159 O773  12.1250  31.8904   2.7500 O773 1 RES   0.0000
1160 Si387  12.1250  31.8904   4.4000 Si387 1 RES   0.0000
1161 O774  12.1250  30.3348   4.9500 O774 1 RES   0.0000
1162 Si388  12.1250  28.7792   5.5000 Si388 1 RES   0.0000
1163 O775  13.4722  28.0013   4.9500 O775 1 RES   0.0000
1164 O776  10.7778  28.0013   4.9500 O776 1 RES   0.0000
1165 Si389  12.1250  28.7792   8.8000 Si389 1 RES   0.0000
1166 O777  13.4722  28.0013   9.3500 O777 1 RES   0.0000
1167 O778  10.7778  28.0013   9.3500 O778 1 RES   0.0000
1168 O779  12.1250  30.3348   9.3500 O779 1 RES   0.0000
1169 Si390  12.1250  31.8904   9.9000 Si390 1 RES   0.0000
1170 O780  12.1250  31.8904  11.5500 O780 1 RES   0.0000
1171 O781  14.8194  33.4461   7.1500 O781 1 RES   0.0000
1172 Si391  14.8194  33.4461   0.0000 Si391 1 RES   0.0000
1173 O782  14.8194  35.0017   0.5500 O782 1 RES   0.0000
1174 Si392  14.8194  36.5573   1.1000 Si392 1 RES   0.0000
1175 O783  16.1666  32.6683   0.5500 O783 1 RES   0.0000
1176 O784  13.4722  32.6683   0.5500 O784 1 RES   0.0000
1177 O785  14.8194  36.5573   2.7500 O785 1 RES   0.0000
1178 Si393  14.8194  36.5573   4.4000 Si393 1 RES   0.0000
1179 O786  14.8194  35.0017   4.9500 O786 1 RES   0.0000
1180 Si394  14.8194  33.4461   5.5000 Si394 1 RES   0.0000
1181 O787  16.1666  32.6683   4.9500 O787 1 RES   0.0000
1182 O788  13.4722  32.6683   4.9500 O788 1 RES   0.0000
1183 Si395  14.8194  33.4461   8.8000 Si395 1 RES   0.0000
1184 O789  16.1666  32.6683   9.3500 O789 1 RES   0.0000
1185 O790  13.4722  32.6683   9.3500 O790 1 RES   0.0000
1186 O791  14.8194  35.0017   9.3500 O791 1 RES   0.0000
1187 Si396  14.8194  36.5573   9.9000 Si396 1 RES   0.0000
1188 O792  14.8194  36.5573  11.5500 O792 1 RES   0.0000
1189 O793  17.5139  28.7792   7.1500 O793 1 RES   0.0000
1190 Si397  17.5139  28.7792   0.0000 Si397 1 RES   0.0000
1191 O794  17.5139  30.3348   0.5500 O794 1 RES   0.0000
1192 Si398  17.5139  31.8904   1.1000 Si398 1 RES   0.0000
1193 O795  18.8611  28.0013   0.5500 O795 1 RES   0.0000
1194 O796  16.1666  28.0013   0.5500 O796 1 RES   0.0000
1195 O797  17.5139  31.8904   2.7500 O797 1 RES   0.0000
1196 Si399  17.5139  31.8904   4.4000 Si399 1 RES   0.0000
1197 O798  17.5139  30.3348   4.9500 O798 1 RES   0.0000
1198 Si400  17.5139  28.7792   5.5000 Si400 1 RES   0.0000
1199 O799  18.8611  28.0013   4.9500 O799 1 RES   0.0000
1200 O800  16.1666  28.0013   4.9500 O800 1 RES   0.0000
1201 Si401  17.5139  28.7792   8.8000 Si401 1 RES   0.0000
1202 O801  18.8611  28.0013   9.3500 O801 1 RES   0.0000
1203 O802  16.1666  28.0013   9.3500 O802 1 RES   0.0000
1204 O803  17.5139  30.3348   9.3500 O803 1 RES   0.0000
1205 Si402  17.5139  31.8904   9.9000 Si402 1 RES   0.0000
1206 O804  17.5139  31.8904  11.5500 O804 1 RES   0.0000
1207 O805  20.2083  33.4461   7.1500 O805 1 RES   0.0000
1208 Si403  20.2083  33.4461   0.0000 Si403 1 RES   0.0000
1209 O806  20.2083  35.0017   0.5500 O806 1 RES   0.0000
1210 Si404  20.2083  36.5573   1.1000 Si404 1 RES   0.0000
1211 O807  21.5555  32.6683   0.5500 O807 1 RES   0.0000
1212 O808  18.8611  32.6683   0.5500 O808 1 RES   0.0000
1213 O809  20.2083  36.5573   2.7500 O809 1 RES   0.0000
1214 Si405  20.2083  36.5573   4.4000 Si405 1 RES   0.0000
1215 O810  20.2083  35.0017   4.9500 O810 1 RES   0.0000
1216 Si406  20.2083  33.4461   5.5000 Si406 1 RES   0.0000
1217 O811  21.5555  32.6683   4.9500 O811 1 RES   0.0000
1218 O812  18.8611  32.6683   4.9500 O812 1 RES   0.0000
1219 Si407  20.2083  33.4461   8.8000 Si407 1 RES   0.0000
1220 O813  21.5555  32.6683   9.3500 O813 1 RES   0.0000
1221 O814  18.8611  32.6683   9.3500 O814 1 RES   0.0000
1222 O815  20.2083  35.0017   9.3500 O815 1 RES   0.0000
1223 Si408  20.2083  36.5573   9.9000 Si408 1 RES   0.0000
1224 O816  20.2083  36.5573  11.5500 O816 1 RES   0.0000
1225 O817  22.9027  28.7792   7.1500 O817 1 RES   0.0000
1226 Si409  22.9027  28.7792   0.0000 Si409 1 RES   0.0000
1227 O818  22.9027  30.3348   0.5500 O818 1 RES   0.0000
1228 Si410  22.9027  31.8904   1.1000 Si410 1 RES   0.0000
1229 O819  24.2500  28.0013   0.5500 O819 1 RES   0.0000
1230 O820  21.5555  28.0013   0.5500 O820 1 RES   0.0000
1231 O821  22.9027  31.8904   2.7500 O821 1 RES   0.0000
1232 Si411  22.9027  31.8904   4.4000 Si411 1 RES   0.0000
1233 O822  22.9027  30.3348   4.9500 O822 1 RES   0.0000
1234 Si412  22.9027  28.7792   5.5000 Si412 1 RES   0.0000
1235 O823  24.2500  28.0013   4.9500 O823 1 RES   0.0000
1236 O824  21.5555  28.0013   4.9500 O824 1 RES   0.0000
1237 Si413  22.9027  28.7792   8.8000 Si413 1 RES   0.0000
1238 O825  24.2500  28.0013   9.3500 O825 1 RES   0.0000
1239 O826  21.5555  28.0013   9.3500 O826 1 RES   0.0000
1240 O827  22.9027  30.3348   9.3500 O827 1 RES   0.0000
1241 Si414  22.9027  31.8904   9.9000 Si414 1 RES   0.0000
1242 O828  22.9027  31.8904  11.5500 O828 1 RES   0.0000
1243 O829  25.5972  33.4461   7.1500 O829 1 RES   0.0000
1244 Si415  25.5972  33.4461   0.0000 Si415 1 RES   0.0000
1245 O830  25.5972  35.0017   0.5500 O830 1 RES   0.0000
1246 Si416  25.5972  36.5573   1.1000 Si416 1 RES   0.0000
1247 O831  26.9444  32.6683   0.5500 O831 1 RES   0.0000
1248 O832  24.2500  32.6683   0.5500 O832 1 RES   0.0000
1249 O833  25.5972  36.5573   2.7500 O833 1 RES   0.0000
1250 Si417  25.5972  36.5573   4.4000 Si417 1 RES   0.0000
1251 O834  25.5972  35.0017   4.9500 O834 1 RES   0.0000
1252 Si418  25.5972  33.4461   5.5000 Si418 1 RES   0.0000
1253 O835  26.9444  32.6683   4.9500 O835 1 RES   0.0000
1254 O836  24.2500  32.6683   4.9500 O836 1 RES   0.0000
1255 Si419  25.5972  33.4461   8.8000 Si419 1 RES   0.0000
1256 O837  26.9444  32.6683   9.3500 O837 1 RES   0.0000
1257 O838  24.2500  32.6683   9.3500 O838 1 RES   0.0000
1258 O839  25.5972  35.0017   9.3500 O839 1 RES   0.0000
1259 Si420  25.5972  36.5573   9.9000 Si420 1 RES   0.0000
1260 O840  25.5972  36.5573  11.5500 O840 1 RES   0.0000
1261 O841  28.2916  28.7792   7.1500 O841 1 RES   0.0000
1262 Si421  28.2916  28.7792   0.0000 Si421 1 RES   0.0000
1263 O842  28.2916  30.3348   0.5500 O842 1 RES   0.0000
1264 Si422  28.2916  31.8904   1.1000 Si422 1 RES   0.0000
1265 O843  29.6388  28.0013   0.5500 O843 1 RES   0.0000
1266 O844  26.9444  28.0013   0.5500 O844 1 RES   0.0000
1267 O845  28.2916  31.8904   2.7500 O845 1 RES   0.0000
1268 Si423  28.2916  31.8904   4.4000 Si423 1 RES   0.0000
1269 O846  28.2916  30.3348   4.9500 O846 1 RES   0.0000
1270 Si424  28.2916  28.7792   5.5000 Si424 1 RES   0.0000
1271 O847  29.6388  28.0013   4.9500 O847 1 RES   0.0000
1272 O848  26.9444  28.0013   4.9500 O848 1 RES   0.0000
1273 Si425  28.2916  28.7792   8.8000 Si425 1 RES   0.0000
1274 O849  29.6388  28.0013   9.3500 O849 1 RES   0.0000
1275 O850  26.9444  28.0013   9.3500 O850 1 RES   0.0000
1276 O851  28.2916  30.3348   9.3500 O851 1 RES   0.0000
1277 Si426  28.2916  31.8904   9.9000 Si426 1 RES   0.0000
1278 O852  28.2916  31.8904  11.5500 O852 1 RES   0.0000
1279 O853  30.9861  33.4461   7.1500 O853 1 RES   0.0000
1280 Si427  30.9861  33.4461   0.0000 Si427 1 RES   0.0000
1281 O854  30.9861  35.0017   0.5500 O854 1 RES   0.0000
1282 Si428  30.9861  36.5573   1.1000 Si428 1 RES   0.0000
1283 O855  32.3333  32.6683   0.5500 O855 1 RES   0.0000
1284 O856  29.6388  32.6683   0.5500 O856 1 RES   0.0000
1285 O857  30.9861  36.5573   2.7500 O857 1 RES   0.0000
1286 Si429  30.9861  36.5573   4.4000 Si429 1 RES   0.0000
1287 O858  30.9861  35.0017   4.9500 O858 1 RES   0.0000
1288 Si430  30.9861  33.4461   5.5000 Si430 1 RES   0.0000
1289 O859  32.3333  32.6683   4.9500 O859 1 RES   0.0000
1290 O860  29.6388  32.6683   4.9500 O860 1 RES   0.0000
1291 Si431  30.9861  33.4461   8.8000 Si431 1 RES   0.0000
1292 O861  32.3333  32.6683   9.3500 O861 1 RES   0.0000
1293 O862  29.6388  32.6683   9.3500 O862 1 RES   0.0000
1294 O863  30.9861  35.0017   9.3500 O863 1 RES   0.0000
1295 Si432  30.9861  36.5573   9.9000 Si432 1 RES   0.0000
1296 O864  30.9861  36.5573  11.5500 O864 1 RES   0.0000
1297 O865  33.6805  28.7792   7.1500 O865 1 RES   0.0000
1298 Si433  33.6805  28.7792   0.0000 Si433 1 RES   0.0000
1299 O866  33.6805  30.3348   0.5500 O866 1 RES   0.0000
1300 Si434  33.6805  31.8904   1.1000 Si434 1 RES   0.0000
1301 O867  35.0277  28.0013   0.5500 O867 1 RES   0.0000
1302 O868  32.3333  28.0013   0.5500 O868 1 RES   0.0000
1303 O869  33.6805  31.8904   2.7500 O869 1 RES   0.0000
1304 Si435  33.6805  31.8904   4.4000 Si435 1 RES   0.0000
1305 O870  33.6805  30.3348   4.9500 O870 1 RES   0.0000
1306 Si436  33.6805  28.7792   5.5000 Si436 1 RES   0.0000
1307 O871  35.0277  28.0013   4.9500 O871 1 RES   0.0000
1308 O872  32.3333  28.0013   4.9500 O872 1 RES   0.0000
1309 Si437  33.6805  28.7792   8.8000 Si437 1 RES   0.0000
1310 O873  35.0277  28.0013   9.3500 O873 1 RES   0.0000
1311 O874  32.3333  28.0013   9.3500 O874 1 RES   0.0000
1312 O875  33.6805  30.3348   9.3500 O875 1 RES   0.0000
1313 Si438  33.6805  31.8904   9.9000 Si438 1 RES   0.0000
1314 O876  33.6805  31.8904  11.5500 O876 1 RES   0.0000
1315 O877  36.3749  33.4461   7.1500 O877 1 RES   0.0000
1316 Si439  36.3749  33.4461   0.0000 Si439 1 RES   0.0000
1317 O878  36.3749  35.0017   0.5500 O878 1 RES   0.0000
1318 Si440  36.3749  36.5573   1.1000 Si440 1 RES   0.0000
1319 O879  37.7222  32.6683   0.5500 O879 1 RES   0.0000
1320 O880  35.0277  32.6683   0.5500 O880 1 RES   0.0000
1321 O881  36.3749  36.5573   2.7500 O881 1 RES   0.0000
1322 Si441  36.3749  36.5573   4.4000 Si441 1 RES   0.0000
1323 O882  36.3749  35.0017   4.9500 O882 1 RES   0.0000
1324 Si442  36.3749  33.4461   5.5000 Si442 1 RES   0.0000
1325 O883  37.7222  32.6683   4.9500 O883 1 RES   0.0000
1326 O884  35.0277  32.6683   4.9500 O884 1 RES   0.0000
1327 Si443  36.3749  33.4461   8.8000 Si443 1 RES   0.0000
1328 O885  37.7222  32.6683   9.3500 O885 1 RES   0.0000
1329 O886  35.0277  32.6683   9.3500 O886 1 RES   0.0000
1330 O887  36.3749  35.0017   9.3500 O887 1 RES   0.0000
1331 Si444  36.3749  36.5573   9.9000 Si444 1 RES   0.0000
1332 O888  36.3749  36.5573  11.5500 O888 1 RES   0.0000
1333 O889  39.0694  28.7792   7.1500 O889 1 RES   0.0000
1334 Si445  39.0694  28.7792   0.0000 Si445 1 RES   0.0000
1335 O890  39.0694  30.3348   0.5500 O890 1 RES   0.0000
1336 Si446  39.0694  31.8904   1.1000 Si446 1 RES   0.0000
1337 O891  40.4166  28.0013   0.5500 O891 1 RES   0.0000
1338 O892  37.7222  28.0013   0.5500 O892 1 RES   0.0000
1339 O893  39.0694  31.8904   2.7500 O893 1 RES   0.0000
1340 Si447  39.0694  31.8904   4.4000 Si447 1 RES   0.0000
1341 O894  39.0694  30.3348   4.9500 O894 1 RES   0.0000
1342 Si448  39.0694  28.7792   5.5000 Si448 1 RES   0.0000
1343 O895  40.4166  28.0013   4.9500 O895 1 RES   0.0000
1344 O896  37.7222  28.0013   4.9500 O896 1 RES   0.0000
1345 Si449  39.0694  28.7792   8.8000 Si449 1 RES   0.0000
1346 O897  40.4166  28.0013   9.3500 O897 1 RES   0.0000
1347 O898  37.7222  28.0013   9.3500 O898 1 RES   0.0000
1348 O899  39.0694  30.3348   9.3500 O899 1 RES   0.0000
1349 Si450  39.0694  31.8904   9.9000 Si450 1 RES   0.0000
1350 O900  39.0694  31.8904  11.5500 O900 1 RES   0.0000
1351 O901  41.7638  33.4461   7.1500 O901 1 RES   0.0000
1352 Si451  41.7638  33.4461   0.0000 Si451 1 RES   0.0000
1353 O902  41.7638  35.0017   0.5500 O902 1 RES   0.0000
1354 Si452  41.7638  36.5573   1.1000 Si452 1 RES   0.0000
1355 O903  43.1110  32.6683   0.5500 O903 1 RES   0.0000
1356 O904  40.4166  32.6683   0.5500 O904 1 RES   0.0000
1357 O905  41.7638  36.5573   2.7500 O905 1 RES   0.0000
1358 Si453  41.7638  36.5573   4.4000 Si453 1 RES   0.0000
1359 O906  41.7638  35.0017   4.9500 O906 1 RES   0.0000
1360 Si454  41.7638  33.4461   5.5000 Si454 1 RES   0.0000
1361 O907  43.1110  32.6683   4.9500 O907 1 RES   0.0000
1362 O908  40.4166  32.6683   4.9500 O908 1 RES   0.0000
1363 Si455  41.7638  33.4461   8.8000 Si455 1 RES   0.0000
1364 O909  43.1110  32.6683   9.3500 O909 1 RES   0.0000
1365 O910  40.4166  32.6683   9.3500 O910 1 RES   0.0000
1366 O911  41.7638  35.0017   9.3500 O911 1 RES   0.0000
1367 Si456  41.7638  36.5573   9.9000 Si456 1 RES   0.0000
1368 O912  41.7638  36.5573  11.5500 O912 1 RES   0.0000
1369 O913  44.4583  28.7792   7.1500 O913 1 RES   0.0000
1370 Si457  44.4583  28.7792   0.0000 Si457 1 RES   0.0000
1371 O914  44.4583  30.3348   0.5500 O914 1 RES   0.0000
1372 Si458  44.4583  31.8904   1.1000 Si458 1 RES   0.0000
1373 O915  45.8055  28.0013   0.5500 O915 1 RES   0.0000
1374 O916  43.1110  28.0013   0.5500 O916 1 RES   0.0000
1375 O917  44.4583  31.8904   2.7500 O917 1 RES   0.0000
1376 Si459  44.4583  31.8904   4.4000 Si459 1 RES   0.0000
1377 O918  44.4583  30.3348   4.9500 O918 1 RES   0.0000
1378 Si460  44.4583  28.7792   5.5000 Si460 1 RES   0.0000
1379 O919  45.8055  28.0013   4.9500 O919 1 RES   0.0000
1380 O920  43.1110  28.0013   4.9500 O920 1 RES   0.0000
1381 Si461  44.4583  28.7792   8.8000 Si461 1 RES   0.0000
1382 O921  45.8055  28.0013   9.3500 O921 1 RES   0.0000
1383 O922  43.1110  28.0013   9.3500 O922 1 RES   0.0000
1384 O923  44.4583  30.3348   9.3500 O923 1 RES   0.0000
1385 Si462  44.4583  31.8904   9.9000 Si462 1 RES   0.0000
1386 O924  44.4583  31.8904  11.5500 O924 1 RES   0.0000
1387 O925  47.1527  33.4461   7.1500 O925 1 RES   0.0000
1388 Si463  47.1527  33.4461   0.0000 Si463 1 RES   0.0000
1389 O926  47.1527  35.0017   0.5500 O926 1 RES   0.0000
1390 Si464  47.1527  36.5573   1.1000 Si464 1 RES   0.0000
1391 O927  48.4999  32.6683   0.5500 O927 1 RES   0.0000
1392 O928  45.8055  32.6683   0.5500 O928 1 RES   0.0000
1393 O929  47.1527  36.5573   2.7500 O929 1 RES   0.0000
1394 Si465  47.1527  36.5573   4.4000 Si465 1 RES   0.0000
1395 O930  47.1527  35.0017   4.9500 O930 1 RES   0.0000
1396 Si466  47.1527  33.4461   5.5000 Si466 1 RES   0.0000
1397 O931  48.4999  32.6683   4.9500 O931 1 RES   0.0000
1398 O932  45.8055  32.6683   4.9500 O932 1 RES   0.0000
1399 Si467  47.1527  33.4461   8.8000 Si467 1 RES   0.0000
1400 O933  48.4999  32.6683   9.3500 O933 1 RES   0.0000
1401 O934  45.8055  32.6683   9.3500 O934 1 RES   0.0000
1402 O935  47.1527  35.0017   9.3500 O935 1 RES   0.0000
1403 Si468  47.1527  36.5573   9.9000 Si468 1 RES   0.0000
1404 O936  47.1527  36.5573  11.5500 O936 1 RES   0.0000
1405 O937  49.8471  28.7792   7.1500 O937 1 RES   0.0000
1406 Si469  49.8471  28.7792   0.0000 Si469 1 RES   0.0000
1407 O938  49.8471  30.3348   0.5500 O938 1 RES   0.0000
1408 Si470  49.8471  31.8904   1.1000 Si470 1 RES   0.0000
1409 O939  51.1944  28.0013   0.5500 O939 1 RES   0.0000
1410 O940  48.4999  28.0013   0.5500 O940 1 RES   0.0000
1411 O941  49.8471  31.8904   2.7500 O941 1 RES   0.0000
1412 Si471  49.8471  31.8904   4.4000 Si471 1 RES   0.0000
1413 O942  49.8471  30.3348   4.9500 O942 1 RES   0.0000
1414 Si472  49.8471  28.7792   5.5000 Si472 1 RES   0.0000
1415 O943  51.1944  28.0013   4.9500 O943 1 RES   0.0000
1416 O944  48.4999  28.0013   4.9500 O944 1 RES   0.0000
1417 Si473  49.8471  28.7792   8.8000 Si473 1 RES   0.0000
1418 O945  51.1944  28.0013   9.3500 O945 1 RES   0.0000
1419 O946  48.4999  28.0013   9.3500 O946 1 RES   0.0000
1420 O947  49.8471  30.3348   9.3500 O947 1 RES   0.0000
1421 Si474  49.8471  31.8904   9.9000 Si474 1 RES   0.0000
1422 O948  49.8471  31.8904  11.5500 O948 1 RES   0.0000
1423 O949  52.5416  33.4461   7.1500 O949 1 RES   0.0000
1424 Si475  52.5416  33.4461   0.0000 Si475 1 RES   0.0000
1425 O950  52.5416  35.0017   0.5500 O950 1 RES   0.0000
1426 Si476  52.5416  36.5573   1.1000 Si476 1 RES   0.0000
1427 O951  53.8888  32.6683   0.5500 O951 1 RES   0.0000
1428 O952  51.1944  32.6683   0.5500 O952 1 RES   0.0000
1429 O953  52.5416  36.5573   2.7500 O953 1 RES   0.0000
1430 Si477  52.5416  36.5573   4.4000 Si477 1 RES   0.0000
1431 O954  52.5416  35.0017   4.9500 O954 1 RES   0.0000
1432 Si478  52.5416  33.4461   5.5000 Si478 1 RES   0.0000
1433 O955  53.8888  32.6683   4.9500 O955 1 RES   0.0000
1434 O956  51.1944  32.6683   4.9500 O956 1 RES   0.0000
1435 Si479  52.5416  33.4461   8.8000 Si479 1 RES   0.0000
1436 O957  53.8888  32.6683   9.3500 O957 1 RES   0.0000
1437 O958  51.1944  32.6683   9.3500 O958 1 RES   0.0000
1438 O959  52.5416  35.0017   9.3500 O959 1 RES   0.0000
1439 Si480  52.5416  36.5573   9.9000 Si480 1 RES   0.0000
1440 O960  52.5416  36.5573  11.5500 O960 1 RES   0.0000
1441 O961   1.3472  38.1129   7.1500 O961 1 RES   0.0000
1442 Si481   1.3472  38.1129   0.0000 Si481 1 RES   0.0000
1443 O962   1.3472  39.6686   0.5500 O962 1 RES   0.0000
1444 Si482   1.3472  41.2242   1.1000 Si482 1 RES   0.0000
1445 O963   2.6944  37.3351   0.5500 O963 1 RES   0.0000
1446 O964   0.0000  37.3351   0.5500 O964 1 RES   0.0000
1447 O965   1.3472  41.2242   2.7500 O965 1 RES   0.0000
1448 Si483   1.3472  41.2242   4.4000 Si483 1 RES   0.0000
1449 O966   1.3472  39.6686   4.9500 O966 1 RES   0.0000
1450 Si484   1.3472  38.1129   5.5000 Si484 1 RES   0.0000
1451 O967   2.6944  37.3351   4.9500 O967 1 RES   0.0000
1452 O968   0.0000  37.3351   4.9500 O968 1 RES   0.0000
1453 Si485   1.3472  38.1129   8.8000 Si485 1 RES   0.0000
1454 O969   2.6944  37.3351   9.3500 O969 1 RES   0.0000
1455 O970   0.0000  37.3351   9.3500 O970 1 RES   0.0000
1456 O971   1.3472  39.6686   9.3500 O971 1 RES   0.0000
1457 Si486   1.3472  41.2242   9.9000 Si486 1 RES   0.0000
1458 O972   1.3472  41.2242  11.5500 O972 1 RES   0.0000
1459 O973   4.0417  42.7799   7.1500 O973 1 RES   0.0000
1460 Si487   4.0417  42.7799   0.0000 Si487 1 RES   0.0000
1461 O974   4.0417  44.3355   0.5500 O974 1 RES   0.0000
1462 Si488   4.0417  45.8911   1.1000 Si488 1 RES   0.0000
1463 O975   5.3889  42.0020   0.5500 O975 1 RES   0.0000
1464 O976   2.6944  42.0020   0.5500 O976 1 RES   0.0000
1465 O977   4.0417  45.8911   2.7500 O977 1 RES   0.0000
1466 Si489   4.0417  45.8911   4.4000 Si489 1 RES   0.0000
1467 O978   4.0417  44.3355   4.9500 O978 1 RES   0.0000
1468 Si490   4.0417  42.7799   5.5000 Si490 1 RES   0.0000
1469 O979   5.3889  42.0020   4.9500 O979 1 RES   0.0000
1470 O980   2.6944  42.0020   4.9500 O980 1 RES   0.0000
1471 Si491   4.0417  42.7799   8.8000 Si491 1 RES   0.0000
1472 O981   5.3889  42.0020   9.3500 O981 1 RES   0.0000
1473 O982   2.6944  42.0020   9.3500 O982 1 RES   0.0000
1474 O983   4.0417  44.3355   9.3500 O983 1 RES   0.0000
1475 Si492   4.0417  45.8911   9.9000 Si492 1 RES   0.0000
1476 O984   4.0417  45.8911  11.5500 O984 1 RES   0.0000
1477 O985   6.7361  38.1129   7.1500 O985 1 RES   0.0000
1478 Si493   6.7361  38.1129   0.0000 Si493 1 RES   0.0000
1479 O986   6.7361  39.6686   0.5500 O986 1 RES   0.0000
1480 Si494   6.7361  41.2242   1.1000 Si494 1 RES   0.0000
1481 O987   8.0833  37.3351   0.5500 O987 1 RES   0.0000
1482 O988   5.3889  37.3351   0.5500 O988 1 RES   0.0000
1483 O989   6.7361  41.2242   2.7500 O989 1 RES   0.0000
1484 Si495   6.7361  41.2242   4.4000 Si495 1 RES   0.0000
1485 O990   6.7361  39.6686   4.9500 O990 1 RES   0.0000
1486 Si496   6.7361  38.1129   5.5000 Si496 1 RES   0.0000
1487 O991   8.0833  37.3351   4.9500 O991 1 RES   0.0000
1488 O992   5.3889  37.3351   4.9500 O992 1 RES   0.0000
1489 Si497   6.7361  38.1129   8.8000 Si497 1 RES   0.0000
1490 O993   8.0833  37.3351   9.3500 O993 1 RES   0.0000
1491 O994   5.3889  37.3351   9.3500 O994 1 RES   0.0000
1492 O995   6.7361  39.6686   9.3500 O995 1 RES   0.0000
1493 Si498   6.7361  41.2242   9.9000 Si498 1 RES   0.0000
1494 O996   6.7361  41.2242  11.5500 O996 1 RES   0.0000
1495 O997   9.4305  42.7799   7.1500 O997 1 RES   0.0000
1496 Si499   9.4305  42.7799   0.0000 Si499 1 RES   0.0000
1497 O998   9.4305  44.3355   0.5500 O998 1 RES   0.0000
1498 Si500   9.4305  45.8911   1.1000 Si500 1 RES   0.0000
1499 O999  10.7778  42.0020   0.5500 O999 1 RES   0.0000
1500 O1000   8.0833  42.0020   0.5500 O1000 1 RES   0.0000
1501 O1001   9.4305  45.8911   2.7500 O1001 1 RES   0.0000
1502 Si501   9.4305  45.8911   4.4000 Si501 1 RES   0.0000
1503 O1002   9.4305  44.3355   4.9500 O1002 1 RES   0.0000
1504 Si502   9.4305  42.7799   5.5000 Si502 1 RES   0.0000
1505 O1003  10.7778  42.0020   4.9500 O1003 1 RES   0.0000
1506 O1004   8.0833  42.0020   4.9500 O1004 1 RES   0.0000
1507 Si503   9.4305  42.7799   8.8000 Si503 1 RES   0.0000
1508 O1005  10.7778  42.0020   9.3500 O1005 1 RES   0.0000
1509 O1006   8.0833  42.0020   9.3500 O1006 1 RES   0.0000
1510 O1007   9.4305  44.3355   9.3500 O1007 1 RES   0.0000
1511 Si504   9.4305  45.8911   9.9000 Si504 1 RES   0.0000
1512 O1008   9.4305  45.8911  11.5500 O1008 1 RES   0.0000
1513 O1009  12.1250  38.1129   7.1500 O1009 1 RES   0.0000
1514 Si505  12.1250  38.1129   0.0000 Si505 1 RES   0.0000
1515 O1010  12.1250  39.6686   0.5500 O1010 1 RES   0.0000
1516 Si506  12.1250  41.2242   1.1000 Si506 1 RES   0.0000
1517 O1011  13.4722  37.3351   0.5500 O1011 1 RES   0.0000
1518 O1012  10.7778  37.3351   0.5500 O1012 1 RES   0.0000
1519 O1013  12.1250  41.2242   2.7500 O1013 1 RES   0.0000
1520 Si507  12.1250  41.2242   4.4000 Si507 1 RES   0.0000
1521 O1014  12.1250  39.6686   4.9500 O1014 1 RES   0.0000
1522 Si508  12.1250  38.1129   5.5000 Si508 1 RES   0.0000
1523 O1015  13.4722  37.3351   4.9500 O1015 1 RES   0.0000
1524 O1016  10.7778  37.3351   4.9500 O1016 1 RES   0.0000
1525 Si509  12.1250  38.1129   8.8000 Si509 1 RES   0.0000
1526 O1017  13.4722  37.3351   9.3500 O1017 1 RES   0.0000
1527 O1018  10.7778  37.3351   9.3500 O1018 1 RES   0.0000
1528 O1019  12.1250  39.6686   9.3500 O1019 1 RES   0.0000
1529 Si510  12.1250  41.2242   9.9000 Si510 1 RES   0.0000
1530 O1020  12.1250  41.2242  11.5500 O1020 1 RES   0.0000
1531 O1021  14.8194  42.7799   7.1500 O1021 1 RES   0.0000
1532 Si511  14.8194  42.7799   0.0000 Si511 1 RES   0.0000
1533 O1022  14.8194  44.3355   0.5500 O1022 1 RES   0.0000
1534 Si512  14.8194  45.8911   1.1000 Si512 1 RES   0.0000
1535 O1023  16.1666  42.0020   0.5500 O1023 1 RES   0.0000
1536 O1024  13.4722  42.0020   0.5500 O1024 1 RES   0.0000
1537 O1025  14.8194  45.8911   2.7500 O1025 1 RES   0.0000
1538 Si513  14.8194  45.8911   4.4000 Si513 1 RES   0.0000
1539 O1026  14.8194  44.3355   4.9500 O1026 1 RES   0.0000
1540 Si514  14.8194  42.7799   5.5000 Si514 1 RES   0.0000
1541 O1027  16.1666  42.0020   4.9500 O1027 1 RES   0.0000
1542 O1028  13.4722  42.0020   4.9500 O1028 1 RES   0.0000
1543 Si515  14.8194  42.7799   8.8000 Si515 1 RES   0.0000
1544 O1029  16.1666  42.0020   9.3500 O1029 1 RES   0.0000
1545 O1030  13.4722  42.0020   9.3500 O1030 1 RES   0.0000
1546 O1031  14.8194  44.3355   9.3500 O1031 1 RES   0.0000
1547 Si516  14.8194  45.8911   9.9000 Si516 1 RES   0.0000
1548 O1032  14.8194  45.8911  11.5500 O1032 1 RES   0.0000
1549 O1033  17.5139  38.1129   7.1500 O1033 1 RES   0.0000
1550 Si517  17.5139  38.1129   0.0000 Si517 1 RES   0.0000
1551 O1034  17.5139  39.6686   0.5500 O1034 1 RES   0.0000
1552 Si518  17.5139  41.2242   1.1000 Si518 1 RES   0.0000
1553 O1035  18.8611  37.3351   0.5500 O1035 1 RES   0.0000
1554 O1036  16.1666  37.3351   0.5500 O1036 1 RES   0.0000
1555 O1037  17.5139  41.2242   2.7500 O1037 1 RES   0.0000
1556 Si519  17.5139  41.2242   4.4000 Si519 1 RES   0.0000
1557 O1038  17.5139  39.6686   4.9500 O1038 1 RES   0.0000
1558 Si520  17.5139  38.1129   5.5000 Si520 1 RES   0.0000
1559 O1039  18.8611  37.3351   4.9500 O1039 1 RES   0.0000
1560 O1040  16.1666  37.3351   4.9500 O1040 1 RES   0.0000
1561 Si521  17.5139  38.1129   8.8000 Si521 1 RES   0.0000
1562 O1041  18.8611  37.3351   9.3500 O1041 1 RES   0.0000
1563 O1042  16.1666  37.3351   9.3500 O1042 1 RES   0.0000
1564 O1043  17.5139  39.6686   9.3500 O1043 1 RES   0.0000
1565 Si522  17.5139  41.2242   9.9000 Si522 1 RES   0.0000
1566 O1044  17.5139  41.2242  11.5500 O1044 1 RES   0.0000
1567 O1045  20.2083  42.7799   7.1500 O1045 1 RES   0.0000
1568 Si523  20.2083  42.7799   0.0000 Si523 1 RES   0.0000
1569 O1046  20.2083  44.3355   0.5500 O1046 1 RES   0.0000
1570 Si524  20.2083  45.8911   1.1000 Si524 1 RES   0.0000
1571 O1047  21.5555  42.0020   0.5500 O1047 1 RES   0.0000
1572 O1048  18.8611  42.0020   0.5500 O1048 1 RES   0.0000
1573 O1049  20.2083  45.8911   2.7500 O1049 1 RES   0.0000
1574 Si525  20.2083  45.8911   4.4000 Si525 1 RES   0.0000
1575 O1050  20.2083  44.3355   4.9500 O1050 1 RES   0.0000
1576 Si526  20.2083  42.7799   5.5000 Si526 1 RES   0.0000
1577 O1051  21.5555  42.0020   4.9500 O1051 1 RES   0.0000
1578 O1052  18.8611  42.0020   4.9500 O1052 1 RES   0.0000
1579 Si527  20.2083  42.7799   8.8000 Si527 1 RES   0.0000
1580 O1053  21.5555  42.0020   9.3500 O1053 1 RES   0.0000
1581 O1054  18.8611  42.0020   9.3500 O1054 1 RES   0.0000
1582 O1055  20.2083  44.3355   9.3500 O1055 1 RES   0.0000
1583 Si528  20.2083  45.8911   9.9000 Si528 1 RES   0.0000
1584 O1056  20.2083  45.8911  11.5500 O1056 1 RES   0.0000
1585 O1057  22.9027  38.1129   7.1500 O1057 1 RES   0.0000
1586 Si529  22.9027  38.1129   0.0000 Si529 1 RES   0.0000
1587 O1058  22.9027  39.6686   0.5500 O1058 1 RES   0.0000
1588 Si530  22.9027  41.2242   1.1000 Si530 1 RES   0.0000
1589 O1059  24.2500  37.3351   0.5500 O1059 1 RES   0.0000
1590 O1060  21.5555  37.3351   0.5500 O1060 1 RES   0.0000
1591 O1061  22.9027  41.2242   2.7500 O1061 1 RES   0.0000
1592 Si531  22.9027  41.2242   4.4000 Si531 1 RES   0.0000
1593 O1062  22.9027  39.6686   4.9500 O1062 1 RES   0.0000
1594 Si532  22.9027  38.1129   5.5000 Si532 1 RES   0.0000
1595 O1063  24.2500  37.3351   4.9500 O1063 1 RES   0.0000
1596 O1064  21.5555  37.3351   4.9500 O1064 1 RES   0.0000
1597 Si533  22.9027  38.1129   8.8000 Si533 1 RES   0.0000
1598 O1065  24.2500  37.3351   9.3500 O1065 1 RES   0.0000
1599 O1066  21.5555  37.3351   9.3500 O1066 1 RES   0.0000
1600 O1067  22.9027  39.6686   9.3500 O1067 1 RES   0.0000
1601 Si534  22.9027  41.2242   9.9000 Si534 1 RES   0.0000
1602 O1068  22.9027  41.2242  11.5500 O1068 1 RES   0.0000
1603 O1069  25.5972  42.7799   7.1500 O1069 1 RES   0.0000
1604 Si535  25.5972  42.7799   0.0000 Si535 1 RES   0.0000
1605 O1070  25.5972  44.3355   0.5500 O1070 1 RES   0.0000
1606 Si536  25.5972  45.8911   1.1000 Si536 1 RES   0.0000
1607 O1071  26.9444  42.0020   0.5500 O1071 1 RES   0.0000
1608 O1072  24.2500  42.0020   0.5500 O1072 1 RES   0.0000
1609 O1073  25.5972  45.8911   2.7500 O1073 1 RES   0.0000
1610 Si537  25.5972  45.8911   4.4000 Si537 1 RES   0.0000
1611 O1074  25.5972  44.3355   4.9500 O1074 1 RES   0.0000
1612 Si538  25.5972  42.7799   5.5000 Si538 1 RES   0.0000
1613 O1075  26.9444  42.0020   4.9500 O1075 1 RES   0.0000
1614 O1076  24.2500  42.0020   4.9500 O1076 1 RES   0.0000
1615 Si539  25.5972  42.7799   8.8000 Si539 1 RES   0.0000
1616 O1077  26.9444  42.0020   9.3500 O1077 1 RES   0.0000
1617 O1078  24.2500  42.0020   9.3500 O1078 1 RES   0.0000
1618 O1079  25.5972  44.3355   9.3500 O1079 1 RES   0.0000
1619 Si540  25.5972  45.8911   9.9000 Si540 1 RES   0.0000
1620 O1080  25.5972  45.8911  11.5500 O1080 1 RES   0.0000
1621 O1081  28.2916  38.1129   7.1500 O1081 1 RES   0.0000
1622 Si541  28.2916  38.1129   0.0000 Si541 1 RES   0.0000
1623 O1082  28.2916  39.6686   0.5500 O1082 1 RES   0.0000
1624 Si542  28.2916  41.2242   1.1000 Si542 1 RES   0.0000
1625 O1083  29.6388  37.3351   0.5500 O1083 1 RES   0.0000
1626 O1084  26.9444  37.3351   0.5500 O1084 1 RES   0.0000
1627 O1085  28.2916  41.2242   2.7500 O1085 1 RES   0.0000
1628 Si543  28.2916  41.2242   4.4000 Si543 1 RES   0.0000
1629 O1086  28.2916  39.6686   4.9500 O1086 1 RES   0.0000
1630 Si544  28.2916  38.1129   5.5000 Si544 1 RES   0.0000
1631 O1087  29.6388  37.3351   4.9500 O1087 1 RES   0.0000
1632 O1088  26.9444  37.3351   4.9500 O1088 1 RES   0.0000
1633 Si545  28.2916  38.1129   8.8000 Si545 1 RES   0.0000
1634 O1089  29.6388  37.3351   9.3500 O1089 1 RES   0.0000
1635 O1090  26.9444  37.3351   9.3500 O1090 1 RES   0.0000
1636 O1091  28.2916  39.6686   9.3500 O1091 1 RES   0.0000
1637 Si546  28.2916  41.2242   9.9000 Si546 1 RES   0.0000
1638 O1092  28.2916  41.2242  11.5500 O1092 1 RES   0.0000
1639 O1093  30.9861  42.7799   7.1500 O1093 1 RES   0.0000
1640 Si547  30.9861  42.7799   0.0000 Si547 1 RES   0.0000
1641 O1094  30.9861  44.3355   0.5500 O1094 1 RES   0.0000
1642 Si548  30.9861  45.8911   1.1000 Si548 1 RES   0.0000
1643 O1095  32.3333  42.0020   0.5500 O1095 1 RES   0.0000
1644 O1096  29.6388  42.0020   0.5500 O1096 1 RES   0.0000
1645 O1097  30.9861  45.8911   2.7500 O1097 1 RES   0.0000
1646 Si549  30.9861  45.8911   4.4000 Si549 1 RES   0.0000
1647 O1098  30.9861  44.3355   4.9500 O1098 1 RES   0.0000
1648 Si550  30.9861  42.7799   5.5000 Si550 1 RES   0.0000
1649 O1099  32.3333  42.0020   4.9500 O1099 1 RES   0.0000
1650 O1100  29.6388  42.0020   4.9500 O1100 1 RES   0.0000
1651 Si551  30.9861  42.7799   8.8000 Si551 1 RES   0.0000
1652 O1101  32.3333  42.0020   9.3500 O1101 1 RES   0.0000
1653 O1102  29.6388  42.0020   9.3500 O1102 1 RES   0.0000
1654 O1103  30.9861  44.3355   9.3500 O1103 1 RES   0.0000
1655 Si552  30.9861  45.8911   9.9000 Si552 1 RES   0.0000
1656 O1104  30.9861  45.8911  11.5500 O1104 1 RES   0.0000
1657 O1105  33.6805  38.1129   7.1500 O1105 1 RES   0.0000
1658 Si553  33.6805  38.1129   0.0000 Si553 1 RES   0.0000
1659 O1106  33.6805  39.6686   0.5500 O1106 1 RES   0.0000
1660 Si554  33.6805  41.2242   1.1000 Si554 1 RES   0.0000
1661 O1107  35.0277  37.3351   0.5500 O1107 1 RES   0.0000
1662 O1108  32.3333  37.3351   0.5500 O1108 1 RES   0.0000
1663 O1109  33.6805  41.2242   2.7500 O1109 1 RES   0.0000
1664 Si555  33.6805  41.2242   4.4000 Si555 1 RES   0.0000
1665 O1110  33.6805  39.6686   4.9500 O1110 1 RES   0.0000
1666 Si556  33.6805  38.1129   5.5000 Si556 1 RES   0.0000
1667 O1111  35.0277  37.3351   4.9500 O1111 1 RES   0.0000
1668 O1112  32.3333  37.3351   4.9500 O1112 1 RES   0.0000
1669 Si557  33.6805  38.1129   8.8000 Si557 1 RES   0.0000
1670 O1113  35.0277  37.3351   9.3500 O1113 1 RES   0.0000
1671 O1114  32.3333  37.3351   9.3500 O1114 1 RES   0.0000
1672 O1115  33.6805  39.6686   9.3500 O1115 1 RES   0.0000
1673 Si558  33.6805  41.2242   9.9000 Si558 1 RES   0.0000
1674 O1116  33.6805  41.2242  11.5500 O1116 1 RES   0.0000
1675 O1117  36.3749  42.7799   7.1500 O1117 1 RES   0.0000
1676 Si559  36.3749  42.7799   0.0000 Si559 1 RES   0.0000
1677 O1118  36.3749  44.3355   0.5500 O1118 1 RES   0.0000
1678 Si560  36.3749  45.8911   1.1000 Si560 1 RES   0.0000
1679 O1119  37.7222  42.0020   0.5500 O1119 1 RES   0.0000
1680 O1120  35.0277  42.0020   0.5500 O1120 1 RES   0.0000
1681 O1121  36.3749  45.8911   2.7500 O1121 1 RES   0.0000
1682 Si561  36.3749  45.8911   4.4000 Si561 1 RES   0.0000
1683 O1122  36.3749  44.3355   4.9500 O1122 1 RES   0.0000
1684 Si562  36.3749  42.7799   5.5000 Si562 1 RES   0.0000
1685 O1123  37.7222  42.0020   4.9500 O1123 1 RES   0.0000
1686 O1124  35.0277  42.0020   4.9500 O1124 1 RES   0.0000
1687 Si563  36.3749  42.7799   8.8000 Si563 1 RES   0.0000
1688 O1125  37.7222  42.0020   9.3500 O1125 1 RES   0.0000
1689 O1126  35.0277  42.0020   9.3500 O1126 1 RES   0.0000
1690 O1127  36.3749  44.3355   9.3500 O1127 1 RES   0.0000
1691 Si564  36.3749  45.8911   9.9000 Si564 1 RES   0.0000
1692 O1128  36.3749  45.8911  11.5500 O1128 1 RES   0.0000
1693 O1129  39.0694  38.1129   7.1500 O1129 1 RES   0.0000
1694 Si565  39.0694  38.1129   0.0000 Si565 1 RES   0.0000
1695 O1130  39.0694  39.6686   0.5500 O1130 1 RES   0.0000
1696 Si566  39.0694  41.2242   1.1000 Si566 1 RES   0.0000
1697 O1131  40.4166  37.3351   0.5500 O1131 1 RES   0.0000
1698 O1132  37.7222  37.3351   0.5500 O1132 1 RES   0.0000
1699 O1133  39.0694  41.2242   2.7500 O1133 1 RES   0.0000
1700 Si567  39.0694  41.2242   4.4000 Si567 1 RES   0.0000
1701 O1134  39.0694  39.6686   4.9500 O1134 1 RES   0.0000
1702 Si568  39.0694  38.1129   5.5000 Si568 1 RES   0.0000
1703 O1135  40.4166  37.3351   4.9500 O1135 1 RES   0.0000
1704 O1136  37.7222  37.3351   4.9500 O1136 1 RES   0.0000
1705 Si569  39.0694  38.1129   8.8000 Si569 1 RES   0.0000
1706 O1137  40.4166  37.3351   9.3500 O1137 1 RES   0.0000
1707 O1138  37.7222  37.3351   9.3500 O1138 1 RES   0.0000
1708 O1139  39.0694  39.6686   9.3500 O1139 1 RES   0.0000
1709 Si570  39.0694  41.2242   9.9000 Si570 1 RES   0.0000
1710 O1140  39.0694  41.2242  11.5500 O1140 1 RES   0.0000
1711 O1141  41.7638  42.7799   7.1500 O1141 1 RES   0.0000
1712 Si571  41.7638  42.7799   0.0000 Si571 1 RES   0.0000
1713 O1142  41.7638  44.3355   0.5500 O1142 1 RES   0.0000
1714 Si572  41.7638  45.8911   1.1000 Si572 1 RES   0.0000
1715 O1143  43.1110  42.0020   0.5500 O1143 1 RES   0.0000
1716 O1144  40.4166  42.0020   0.5500 O1144 1 RES   0.0000
1717 O1145  41.7638  45.8911   2.7500 O1145 1 RES   0.0000
1718 Si573  41.7638  45.8911   4.4000 Si573 1 RES   0.0000
1719 O1146  41.7638  44.3355   4.9500 O1146 1 RES   0.0000
1720 Si574  41.7638  42.7799   5.5000 Si574 1 RES   0.0000
1721 O1147  43.1110  42.0020   4.9500 O1147 1 RES   0.0000
1722 O1148  40.4166  42.0020   4.9500 O1148 1 RES   0.0000
1723 Si575  41.7638  42.7799   8.8000 Si575 1 RES   0.0000
1724 O1149  43.1110  42.0020   9.3500 O1149 1 RES   0.0000
1725 O1150  40.4166  42.0020   9.3500 O1150 1 RES   0.0000
1726 O1151  41.7638  44.3355   9.3500 O1151 1 RES   0.0000
1727 Si576  41.7638  45.8911   9.9000 Si576 1 RES   0.0000
1728 O1152  41.7638  45.8911  11.5500 O1152 1 RES   0.0000
1729 O1153  44.4583  38.1129   7.1500 O1153 1 RES   0.0000
1730 Si577  44.4583  38.1129   0.0000 Si577 1 RES   0.0000
1731 O1154  44.4583  39.6686   0.5500 O1154 1 RES   0.0000
1732 Si578  44.4583  41.2242   1.1000 Si578 1 RES   0.0000
1733 O1155  45.8055  37.3351   0.5500 O1155 1 RES   0.0000
1734 O1156  43.1110  37.3351   0.5500 O1156 1 RES   0.0000
1735 O1157  44.4583  41.2242   2.7500 O1157 1 RES   0.0000
1736 Si579  44.4583  41.2242   4.4000 Si579 1 RES   0.0000
1737 O1158  44.4583  39.6686   4.9500 O1158 1 RES   0.0000
1738 Si580  44.4583  38.1129   5.5000 Si580 1 RES   0.0000
1739 O1159  45.8055  37.3351   4.9500 O1159 1 RES   0.0000
1740 O1160  43.1110  37.3351   4.9500 O1160 1 RES   0.0000
1741 Si581  44.4583  38.1129   8.8000 Si581 1 RES   0.0000
1742 O1161  45.8055  37.3351   9.3500 O1161 1 RES   0.0000
1743 O1162  43.1110  37.3351   9.3500 O1162 1 RES   0.0000
1744 O1163  44.4583  39.6686   9.3500 O1163 1 RES   0.0000
1745 Si582  44.4583  41.2242   9.9000 Si582 1 RES   0.0000
1746 O1164  44.4583  41.2242  11.5500 O1164 1 RES   0.0000
1747 O1165  47.1527  42.7799   7.1500 O1165 1 RES   0.0000
1748 Si583  47.1527  42.7799   0.0000 Si583 1 RES   0.0000
1749 O1166  47.1527  44.3355   0.5500 O1166 1 RES   0.0000
1750 Si584  47.1527  45.8911   1.1000 Si584 1 RES   0.0000
1751 O1167  48.4999  42.0020   0.5500 O1167 1 RES   0.0000
1752 O1168  45.8055  42.0020   0.5500 O1168 1 RES   0.0000
1753 O1169  47.1527  45.8911   2.7500 O1169 1 RES   0.0000
1754 Si585  47.1527  45.8911   4.4000 Si585 1 RES   0.0000
1755 O1170  47.1527  44.3355   4.9500 O1170 1 RES   0.0000
1756 Si586  47.1527  42.7799   5.5000 Si586 1 RES   0.0000
1757 O1171  48.4999  42.0020   4.9500 O1171 1 RES   0.0000
1758 O1172  45.8055  42.0020   4.9500 O1172 1 RES   0.0000
1759 Si587  47.1527  42.7799   8.8000 Si587 1 RES   0.0000
1760 O1173  48.4999  42.0020   9.3500 O1173 1 RES   0.0000
1761 O1174  45.8055  42.0020   9.3500 O1174 1 RES   0.0000
1762 O1175  47.1527  44.3355   9.3500 O1175 1 RES   0.0000
1763 Si588  47.1527  45.8911   9.9000 Si588 1 RES   0.0000
1764 O1176  47.1527  45.8911  11.5500 O1176 1 RES   0.0000
1765 O1177  49.8471  38.1129   7.1500 O1177 1 RES   0.0000
1766 Si589  49.8471  38.1129   0.0000 Si589 1 RES   0.0000
1767 O1178  49.8471  39.6686   0.5500 O1178 1 RES   0.0000
1768 Si590  49.8471  41.2242   1.1000 Si590 1 RES   0.0000
1769 O1179  51.1944  37.3351   0.5500 O1179 1 RES   0.0000
1770 O1180  48.4999  37.3351   0.5500 O1180 1 RES   0.0000
1771 O1181  49.8471  41.2242   2.7500 O1181 1 RES   0.0000
1772 Si591  49.8471  41.2242   4.4000 Si591 1 RES   0.0000
1773 O1182  49.8471  39.6686   4.9500 O1182 1 RES   0.0000
1774 Si592  49.8471  38.1129   5.5000 Si592 1 RES   0.0000
1775 O1183  51.1944  37.3351   4.9500 O1183 1 RES   0.0000
1776 O1184  48.4999  37.3351   4.9500 O1184 1 RES   0.0000
1777 Si593  49.8471  38.1129   8.8000 Si593 1 RES   0.0000
1778 O1185  51.1944  37.3351   9.3500 O1185 1 RES   0.0000
1779 O1186  48.4999  37.3351   9.3500 O1186 1 RES   0.0000
1780 O1187  49.8471  39.6686   9.3500 O1187 1 RES   0.0000
1781 Si594  49.8471  41.2242   9.9000 Si594 1 RES   0.0000
1782 O1188  49.8471  41.2242  11.5500 O1188 1 RES   0.0000
1783 O1189  52.5416  42.7799   7.1500 O1189 1 RES   0.0000
1784 Si595  52.5416  42.7799   0.0000 Si595 1 RES   0.0000
1785 O1190  52.5416  44.3355   0.5500 O1190 1 RES   0.0000
1786 Si596  52.5416  45.8911   1.1000 Si596 1 RES   0.0000
1787 O1191  53.8888  42.0020   0.5500 O1191 1 RES   0.0000
1788 O1192  51.1944  42.0020   0.5500 O1192 1 RES   0.0000
1789 O1193  52.5416  45.8911   2.7500 O1193 1 RES   0.0000
1790 Si597  52.5416  45.8911   4.4000 Si597 1 RES   0.0000
1791 O1194  52.5416  44.3355   4.9500 O1194 1 RES   0.0000
1792 Si598  52.5416  42.7799   5.5000 Si598 1 RES   0.0000
1793 O1195  53.8888  42.0020   4.9500 O1195 1 RES   0.0000
1794 O1196  51.1944  42.0020   4.9500 O1196 1 RES   0.0000
1795 Si599  52.5416  42.7799   8.8000 Si599 1 RES   0.0000
1796 O1197  53.8888  42.0020   9.3500 O1197 1 RES   0.0000
1797 O1198  51.1944  42.0020   9.3500 O1198 1 RES   0.0000
1798 O1199  52.5416  44.3355   9.3500 O1199 1 RES   0.0000
1799 Si600  52.5416  45.8911   9.9000 Si600 1 RES   0.0000
1800 O1200  52.5416  45.8911  11.5500 O1200 1 RES   0.0000
1801 O1201   1.3472   0.7778  -1.6500 O1201 1 RES   0.0000
1802 O1202   4.0417   5.4447  -1.6500 O1202 1 RES   0.0000
1803 O1203   6.7361   0.7778  -1.6500 O1203 1 RES   0.0000
1804 O1204   9.4305   5.4447  -1.6500 O1204 1 RES   0.0000
1805 O1205  12.1250   0.7778  -1.6500 O1205 1 RES   0.0000
1806 O1206  14.8194   5.4447  -1.6500 O1206 1 RES   0.0000
1807 O1207  17.5139   0.7778  -1.6500 O1207 1 RES   0.0000
1808 O1208  20.2083   5.4447  -1.6500 O1208 1 RES   0.0000
1809 O1209  22.9027   0.7778  -1.6500 O1209 1 RES   0.0000
1810 O1210  25.5972   5.4447  -1.6500 O1210 1 RES   0.0000
1811 O1211  28.2916   0.7778  -1.6500 O1211 1 RES   0.0000
1812 O1212  30.9861   5.4447  -1.6500 O1212 1 RES   0.0000
1813 O1213  33.6805   0.7778  -1.6500 O1213 1 RES   0.0000
1814 O1214  36.3749   5.4447  -1.6500 O1214 1 RES   0.0000
1815 O1215  39.0694   0.7778  -1.6500 O1215 1 RES   0.0000
1816 O1216  41.7638   5.4447  -1.6500 O1216 1 RES   0.0000
1817 O1217  44.4583   0.7778  -1.6500 O1217 1 RES   0.0000
1818 O1218  47.1527   5.4447  -1.6500 O1218 1 RES   0.0000
1819 O1219  49.8471   0.7778  -1.6500 O1219 1 RES   0.0000
1820 O1220  52.5416   5.4447  -1.6500 O1220 1 RES   0.0000
1821 O1221   1.3472  10.1116  -1.6500 O1221 1 RES   0.0000
1822 O1222   4.0417  14.7785  -1.6500 O1222 1 RES   0.0000
1823 O1223   6.7361  10.1116  -1.6500 O1223 1 RES   0.0000
1824 O1224   9.4305  14.7785  -1.6500 O1224 1 RES   0.0000
1825 O1225  12.1250  10.1116  -1.6500 O1225 1 RES   0.0000
1826 O1226  14.8194  14.7785  -1.6500 O1226 1 RES   0.0000
1827 O1227  17.5139  10.1116  -1.6500 O1227 1 RES   0.0000
1828 O1228  20.2083  14.7785  -1.6500 O1228 1 RES   0.0000
1829 O1229  22.9027  10.1116  -1.6500 O1229 1 RES   0.0000
1830 O1230  25.5972  14.7785  -1.6500 O1230 1 RES   0.0000
1831 O1231  28.2916  10.1116  -1.6500 O1231 1 RES   0.0000
1832 O1232  30.9861  14.7785  -1.6500 O1232 1 RES   0.0000
1833 O1233  33.6805  10.1116  -1.6500 O1233 1 RES   0.0000
1834 O1234  36.3749  14.7785  -1.6500 O1234 1 RES   0.0000
1835 O1235  39.0694  10.1116  -1.6500 O1235 1 RES   0.0000
1836 O1236  41.7638  14.7785  -1.6500 O1236 1 RES   0.0000
1837 O1237  44.4583  10.1116  -1.6500 O1237 1 RES   0.0000
1838 O1238  47.1527  14.7785  -1.6500 O1238 1 RES   0.0000
1839 O1239  49.8471  10.1116  -1.6500 O1239 1 RES   0.0000
1840 O1240  52.5416  14.7785  -1.6500 O1240 1 RES   0.0000
1841 O1241   1.3472  19.4454  -1.6500 O1241 1 RES   0.0000
1842 O1242   4.0417  24.1123  -1.6500 O1242 1 RES   0.0000
1843 O1243   6.7361  19.4454  -1.6500 O1243 1 RES   0.0000
1844 O1244   9.4305  24.1123  -1.6500 O1244 1 RES   0.0000
1845 O1245  12.1250  19.4454  -1.6500 O1245 1 RES   0.0000
1846 O1246  14.8194  24.1123  -1.6500 O1246 1 RES   0.0000
1847 O1247  17.5139  19.4454  -1.6500 O1247 1 RES   0.0000
1848 O1248  20.2083  24.1123  -1.6500 O1248 1 RES   0.0000
1849 O1249  22.9027  19.4454  -1.6500 O1249 1 RES   0.0000
1850 O1250  25.5972  24.1123  -1.6500 O1250 1 RES   0.0000
1851 O1251  28.2916  19.4454  -1.6500 O1251 1 RES   0.0000
1852 O1252  30.9861  24.1123  -1.6500 O1252 1 RES   0.0000
1853 O1253  33.6805  19.4454  -1.6500 O1253 1 RES   0.0000
1854 O1254  36.3749  24.1123  -1.6500 O1254 1 RES   0.0000
1855 O1255  39.0694  19.4454  -1.6500 O1255 1 RES   0.0000
1856 O1256  41.7638  24.1123  -1.6500 O1256 1 RES   0.0000
1857 O1257  44.4583  19.4454  -1.6500 O1257 1 RES   0.0000
1858 O1258  47.1527  24.1123  -1.6500 O1258 1 RES   0.0000
1859 O1259  49.8471  19.4454  -1.6500 O1259 1 RES   0.0000
1860 O1260  52.5416  24.1123  -1.6500 O1260 1 RES   0.0000
1861 O1261   1.3472  28.7792  -1.6500 O1261 1 RES   0.0000
1862 O1262   4.0417  33.4461  -1.6500 O1262 1 RES   0.0000
1863 O1263   6.7361  28.7792  -1.6500 O1263 1 RES   0.0000
1864 O1264   9.4305  33.4461  -1.6500 O1264 1 RES   0.0000
1865 O1265  12.1250  28.7792  -1.6500 O1265 1 RES   0.0000
1866 O1266  14.8194  33.4461  -1.6500 O1266 1 RES   0.0000
1867 O1267  17.5139  28.7792  -1.6500 O1267 1 RES   0.0000
1868 O1268  20.2083  33.4461  -1.6500 O1268 1 RES   0.0000
1869 O1269  22.9027  28.7792  -1.6500 O1269 1 RES   0.0000
1870 O1270  25.5972  33.4461  -1.6500 O1270 1 RES   0.0000
1871 O1271  28.2916  28.7792  -1.6500 O1271 1 RES   0.0000
1872 O1272  30.9861  33.4461  -1.6500 O1272 1 RES   0.0000
1873 O1273  33.6805  28.7792  -1.6500 O1273 1 RES   0.0000
1874 O1274  36.3749  33.4461  -1.6500 O1274 1 RES   0.0000
1875 O1275  39.0694  28.7792  -1.6500 O1275 1 RES   0.0000
1876 O1276  41.7638  33.4461  -1.6500 O1276 1 RES   0.0000
1877 O1277  44.4583  28.7792  -1.6500 O1277 1 RES   0.0000
1878 O1278  47.1527  33.4461  -1.6500 O1278 1 RES   0.0000
1879 O1279  49.8471  28.7792  -1.6500 O1279 1 RES   0.0000
1880 O1280  52.5416  33.4461  -1.6500 O1280 1 RES   0.0000
1881 O1281   1.3472  38.1129  -1.6500 O1281 1 RES   0.0000
1882 O1282   4.0417  42.7799  -1.6500 O1282 1 RES   0.0000
1883 O1283   6.7361  38.1129  -1.6500 O1283 1 RES   0.0000
1884 O1284   9.4305  42.7799  -1.6500 O1284 1 RES   0.0000
1885 O1285  12.1250  38.1129  -1.6500 O1285 1 RES   0.0000
1886 O1286  14.8194  42.7799  -1.6500 O1286 1 RES   0.0000
1887 O1287  17.5139  38.1129  -1.6500 O1287 1 RES   0.0000
1888 O1288  20.2083  42.7799  -1.6500 O1288 1 RES   0.0000
1889 O1289  22.9027  38.1129  -1.6500 O1289 1 RES   0.0000
1890 O1290  25.5972  42.7799  -1.6500 O1290 1 RES   0.0000
1891 O1291  28.2916  38.1129  -1.6500 O1291 1 RES   0.0000
1892 O1292  30.9861  42.7799  -1.6500 O1292 1 RES   0.0000
1893 O1293  33.6805  38.1129  -1.6500 O1293 1 RES   0.0000
1894 O1294  36.3749  42.7799  -1.6500 O1294 1 RES   0.0000
1895 O1295  39.0694  38.1129  -1.6500 O1295 1 RES   0.0000
1896 O1296  41.7638  42.7799  -1.6500 O1296 1 RES   0.0000
1897 O1297  44.4583  38.1129  -1.6500 O1297 1 RES   0.0000
1898 O1298  47.1527  42.7799  -1.6500 O1298 1 RES   0.0000
1899 O1299  49.8471  38.1129  -1.6500 O1299 1 RES   0.0000
1900 O1300  52.5416  42.7799  -1.6500 O1300 1 RES   0.0000
@<TRIPOS>BOND
1 938 1853 1
2 1684 1686 1
3 103 106 1
4 211 214 1
5 157 160 1
6 1532 1886 1
7 640 642 1
8 424 426 1
9 1630 1631 1
10 579 580 1
11 1672 1673 1
12 1504 1505 1
13 1227 1228 1
14 1652 1673 1
15 1685 1700 1
16 1513 1525 1
17 1729 1741 1
18 1390 1393 1
19 958 961 1
20 310 313 1
21 1174 1177 1
22 670 1013 1
23 472 475 1
24 1336 1356 1
25 958 1338 1
26 524 525 1
27 740 741 1
28 495 496 1
29 255 256 1
30 1651 1652 1
31 776 1844 1
32 719 720 1
33 71 410 1
34 287 626 1
35 677 692 1
36 1745 1761 1
37 1601 1617 1
38 1529 1545 1
39 38 42 1
40 749 764 1
41 616 636 1
42 832 852 1
43 164 165 1
44 29 44 1
45 397 406 1
46 148 168 1
47 559 571 1
48 31 33 1
49 265 267 1
50 247 249 1
51 85 87 1
52 1571 1588 1
53 1190 1193 1
54 974 977 1
55 1640 1643 1
56 1217 1232 1
57 569 584 1
58 931 932 1
59 1317 1318 1
60 1363 1364 1
61 715 716 1
62 464 485 1
63 1210 1590 1
64 94 437 1
65 1759 1762 1
66 1543 1546 1
67 1723 1725 1
68 1507 1509 1
69 1785 1786 1
70 1396 1397 1
71 1180 1181 1
72 316 317 1
73 964 965 1
74 481 483 1
75 200 1812 1
76 10 12 1
77 578 581 1
78 1226 1229 1
79 1064 1068 1
80 1280 1284 1
81 1633 1634 1
82 1552 1572 1
83 557 573 1
84 103 104 1
85 211 212 1
86 157 158 1
87 1429 1430 1
88 997 998 1
89 781 782 1
90 1180 1182 1
91 316 318 1
92 1396 1398 1
93 964 966 1
94 940 943 1
95 1406 1410 1
96 728 729 1
97 512 513 1
98 17 356 1
99 1651 1654 1
100 740 1842 1
101 308 1818 1
102 1340 1362 1
103 188 210 1
104 760 780 1
105 976 996 1
106 87 1511 1
107 159 1583 1
108 338 1799 1
109 1334 1335 1
110 469 481 1
111 296 318 1
112 937 949 1
113 269 270 1
114 620 642 1
115 1046 1859 1
116 1403 1404 1
117 323 324 1
118 1187 1188 1
119 971 972 1
120 665 666 1
121 638 639 1
122 854 855 1
123 422 423 1
124 1345 1346 1
125 1612 1613 1
126 1564 1565 1
127 335 1790 1
128 733 734 1
129 674 675 1
130 517 518 1
131 350 351 1
132 409 410 1
133 1489 1490 1
134 841 842 1
135 562 905 1
136 346 689 1
137 625 626 1
138 1328 1349 1
139 1732 1735 1
140 1516 1519 1
141 172 173 1
142 1731 1732 1
143 1515 1516 1
144 1502 1503 1
145 676 678 1
146 1633 1635 1
147 67 70 1
148 283 286 1
149 121 124 1
150 229 232 1
151 298 299 1
152 946 947 1
153 1654 1655 1
154 1525 1526 1
155 1741 1742 1
156 458 803 1
157 1648 1649 1
158 104 125 1
159 212 233 1
160 1069 1070 1
161 1285 1286 1
162 580 583 1
163 1228 1231 1
164 428 449 1
165 1172 1866 1
166 1565 1566 1
167 1208 1211 1
168 751 754 1
169 535 538 1
170 1627 1628 1
171 1439 1440 1
172 467 843 1
173 791 792 1
174 1007 1008 1
175 1151 1152 1
176 883 895 1
177 451 463 1
178 1099 1111 1
179 128 132 1
180 182 186 1
181 754 755 1
182 538 539 1
183 1747 1759 1
184 1264 1284 1
185 1048 1068 1
186 1531 1543 1
187 1223 1562 1
188 1439 1778 1
189 1196 1218 1
190 568 570 1
191 1216 1218 1
192 1208 1212 1
193 692 693 1
194 1124 1125 1
195 908 909 1
196 1136 1140 1
197 1286 1631 1
198 1394 1776 1
199 1147 1149 1
200 542 545 1
201 50 1511 1
202 241 242 1
203 295 296 1
204 79 80 1
205 25 26 1
206 916 917 1
207 1348 1349 1
208 490 833 1
209 700 701 1
210 1721 1736 1
211 1700 1722 1
212 163 172 1
213 730 732 1
214 1028 1858 1
215 1042 1043 1
216 1474 1475 1
217 1258 1259 1
218 514 516 1
219 508 528 1
220 724 744 1
221 206 551 1
222 1263 1264 1
223 1288 1290 1
224 1047 1048 1
225 1479 1480 1
226 1615 1616 1
227 1673 1674 1
228 565 566 1
229 1213 1214 1
230 283 284 1
231 67 68 1
232 229 230 1
233 121 122 1
234 1138 1141 1
235 1321 1322 1
236 1030 1033 1
237 382 385 1
238 814 817 1
239 668 671 1
240 1147 1150 1
241 665 681 1
242 1119 1120 1
243 903 904 1
244 687 688 1
245 1660 1680 1
246 1748 1898 1
247 1178 1523 1
248 1394 1739 1
249 134 479 1
250 1439 1455 1
251 1738 1739 1
252 1522 1523 1
253 1294 1295 1
254 503 504 1
255 646 647 1
256 430 431 1
257 1115 1116 1
258 899 900 1
259 683 684 1
260 533 548 1
261 821 836 1
262 605 620 1
263 352 353 1
264 6 1786 1
265 764 786 1
266 980 1002 1
267 998 1343 1
268 613 622 1
269 920 921 1
270 1352 1353 1
271 829 838 1
272 704 705 1
273 812 1846 1
274 1421 1422 1
275 873 874 1
276 254 1815 1
277 1089 1090 1
278 1142 1524 1
279 561 562 1
280 1605 1606 1
281 1557 1558 1
282 345 346 1
283 1498 1501 1
284 1084 1104 1
285 868 888 1
286 1334 1338 1
287 1369 1378 1
288 898 899 1
289 225 226 1
290 279 280 1
291 63 64 1
292 1137 1138 1
293 117 118 1
294 1153 1162 1
295 1400 1421 1
296 1664 1665 1
297 962 1344 1
298 520 521 1
299 170 515 1
300 736 737 1
301 13 16 1
302 175 178 1
303 1597 1599 1
304 1789 1790 1
305 1688 1709 1
306 1453 1455 1
307 1237 1239 1
308 589 591 1
309 1768 1788 1
310 1613 1628 1
311 398 1823 1
312 364 367 1
313 676 677 1
314 1334 1875 1
315 664 665 1
316 809 825 1
317 1057 1060 1
318 1273 1276 1
319 1623 1624 1
320 319 322 1
321 1399 1402 1
322 967 970 1
323 1183 1186 1
324 129 130 1
325 183 184 1
326 1208 1868 1
327 667 679 1
328 1154 1158 1
329 1370 1374 1
330 215 591 1
331 675 676 1
332 614 617 1
333 830 833 1
334 902 905 1
335 1118 1121 1
336 380 1822 1
337 686 689 1
338 521 522 1
339 1781 1797 1
340 737 738 1
341 1550 1553 1
342 1319 1336 1
343 1766 1769 1
344 1045 1057 1
345 1261 1273 1
346 1370 1373 1
347 746 1091 1
348 530 875 1
349 1154 1157 1
350 256 259 1
351 76 79 1
352 238 241 1
353 292 295 1
354 778 1121 1
355 22 25 1
356 1441 1453 1
357 258 1678 1
358 1354 1734 1
359 1496 1497 1
360 416 417 1
361 632 633 1
362 818 1163 1
363 848 849 1
364 418 421 1
365 850 853 1
366 634 637 1
367 1372 1392 1
368 1156 1176 1
369 150 1570 1
370 1172 1176 1
371 1388 1392 1
372 801 802 1
373 308 312 1
374 956 960 1
375 278 660 1
376 369 370 1
377 62 444 1
378 1017 1018 1
379 68 89 1
380 140 161 1
381 13 14 1
382 175 176 1
383 560 1832 1
384 472 492 1
385 1246 1249 1
386 598 601 1
387 1376 1377 1
388 355 356 1
389 1462 1465 1
390 1160 1161 1
391 391 392 1
392 980 981 1
393 251 590 1
394 119 1574 1
395 1292 1313 1
396 1196 1197 1
397 764 765 1
398 1117 1126 1
399 901 910 1
400 685 694 1
401 1268 1269 1
402 1052 1053 1
403 284 305 1
404 1675 1684 1
405 693 694 1
406 1125 1126 1
407 909 910 1
408 1 13 1
409 53 54 1
410 710 732 1
411 1388 1878 1
412 355 357 1
413 1286 1668 1
414 1798 1799 1
415 1777 1780 1
416 1567 1579 1
417 1708 1709 1
418 1684 1685 1
419 1106 1107 1
420 1381 1382 1
421 458 459 1
422 1327 1330 1
423 1165 1166 1
424 1514 1885 1
425 560 561 1
426 344 345 1
427 890 891 1
428 913 916 1
429 697 700 1
430 1112 1133 1
431 1660 1663 1
432 1574 1575 1
433 1718 1719 1
434 1694 1695 1
435 1640 1641 1
436 1108 1110 1
437 460 462 1
438 892 894 1
439 230 1691 1
440 1604 1607 1
441 493 494 1
442 1431 1432 1
443 783 784 1
444 999 1000 1
445 793 802 1
446 1009 1018 1
447 619 620 1
448 1120 1140 1
449 835 836 1
450 1586 1589 1
451 1144 1146 1
452 476 498 1
453 1497 1498 1
454 1709 1710 1
455 633 634 1
456 849 850 1
457 231 1655 1
458 1327 1329 1
459 1295 1671 1
460 417 418 1
461 362 363 1
462 1732 1752 1
463 1516 1536 1
464 346 366 1
465 1288 1289 1
466 1676 1894 1
467 1568 1888 1
468 398 402 1
469 262 264 1
470 1066 1086 1
471 1621 1630 1
472 350 695 1
473 1082 1083 1
474 866 867 1
475 751 752 1
476 535 536 1
477 431 432 1
478 647 648 1
479 488 492 1
480 1295 1296 1
481 161 177 1
482 4 347 1
483 103 105 1
484 211 213 1
485 1565 1581 1
486 157 159 1
487 1772 1794 1
488 1687 1689 1
489 169 170 1
490 1648 1650 1
491 1792 1794 1
492 433 442 1
493 649 658 1
494 1297 1306 1
495 484 485 1
496 602 947 1
497 1027 1036 1
498 386 768 1
499 1251 1252 1
500 1035 1036 1
501 1467 1468 1
502 599 616 1
503 506 1829 1
504 1184 1205 1
505 968 989 1
506 1054 1055 1
507 1270 1271 1
508 929 944 1
509 433 445 1
510 228 1646 1
511 107 446 1
512 1591 1592 1
513 176 197 1
514 1586 1587 1
515 1754 1755 1
516 1259 1635 1
517 635 652 1
518 759 760 1
519 1191 1192 1
520 975 976 1
521 419 436 1
522 1538 1539 1
523 326 330 1
524 884 887 1
525 1100 1103 1
526 452 455 1
527 1124 1146 1
528 377 393 1
529 694 695 1
530 1715 1732 1
531 1126 1127 1
532 386 387 1
533 910 911 1
534 877 878 1
535 1676 1677 1
536 1093 1094 1
537 445 446 1
538 1700 1701 1
539 1762 1763 1
540 1546 1547 1
541 706 726 1
542 1603 1612 1
543 1666 1667 1
544 854 1236 1
545 1342 1344 1
546 601 602 1
547 1426 1769 1
548 22 402 1
549 1477 1489 1
550 1701 1702 1
551 1677 1678 1
552 566 567 1
553 1057 1058 1
554 1214 1215 1
555 1273 1274 1
556 503 879 1
557 395 734 1
558 1624 1627 1
559 1187 1563 1
560 1417 1420 1
561 135 136 1
562 189 190 1
563 1683 1684 1
564 489 490 1
565 143 482 1
566 643 645 1
567 1291 1293 1
568 427 429 1
569 1148 1169 1
570 1010 1857 1
571 1669 1671 1
572 1597 1598 1
573 273 274 1
574 416 1824 1
575 1600 1601 1
576 326 1819 1
577 1757 1772 1
578 1580 1601 1
579 778 1158 1
580 802 804 1
581 1018 1020 1
582 994 1374 1
583 370 372 1
584 1336 1339 1
585 611 612 1
586 827 828 1
587 1108 1109 1
588 460 461 1
589 892 893 1
590 926 1308 1
591 1730 1733 1
592 1514 1517 1
593 448 449 1
594 1096 1097 1
595 880 881 1
596 881 897 1
597 1313 1329 1
598 1097 1113 1
599 1315 1324 1
600 1484 1485 1
601 1579 1580 1
602 12 1790 1
603 1496 1884 1
604 344 1820 1
605 1417 1419 1
606 20 24 1
607 254 258 1
608 290 294 1
609 74 78 1
610 236 240 1
611 172 174 1
612 631 643 1
613 415 427 1
614 1174 1554 1
615 1107 1108 1
616 459 460 1
617 782 1127 1
618 891 892 1
619 1262 1265 1
620 1046 1049 1
621 967 968 1
622 476 477 1
623 319 320 1
624 1183 1184 1
625 1399 1400 1
626 1478 1481 1
627 1244 1870 1
628 67 69 1
629 229 231 1
630 283 285 1
631 1250 1632 1
632 121 123 1
633 218 1813 1
634 506 507 1
635 722 723 1
636 1556 1578 1
637 1795 1798 1
638 584 606 1
639 114 1534 1
640 1615 1618 1
641 1665 1666 1
642 550 552 1
643 334 336 1
644 298 300 1
645 946 948 1
646 1406 1407 1
647 1567 1576 1
648 578 1833 1
649 1711 1720 1
650 294 1714 1
651 524 528 1
652 740 744 1
653 1233 1234 1
654 794 797 1
655 585 586 1
656 1449 1450 1
657 1442 1445 1
658 1010 1013 1
659 631 640 1
660 1777 1778 1
661 847 856 1
662 1316 1320 1
663 415 424 1
664 1753 1754 1
665 1537 1538 1
666 454 834 1
667 1730 1731 1
668 1514 1515 1
669 758 762 1
670 1309 1312 1
671 1471 1472 1
672 332 333 1
673 548 549 1
674 1255 1256 1
675 1039 1040 1
676 1579 1582 1
677 661 662 1
678 91 103 1
679 145 157 1
680 199 211 1
681 640 641 1
682 424 425 1
683 1655 1656 1
684 737 1076 1
685 1469 1484 1
686 524 1830 1
687 1253 1268 1
688 1088 1110 1
689 872 894 1
690 1711 1723 1
691 1037 1052 1
692 568 569 1
693 1216 1217 1
694 598 978 1
695 566 911 1
696 227 1682 1
697 574 575 1
698 1438 1439 1
699 1222 1223 1
700 790 791 1
701 1352 1876 1
702 1006 1007 1
703 1207 1219 1
704 1079 1418 1
705 577 589 1
706 361 373 1
707 1225 1237 1
708 652 672 1
709 1619 1620 1
710 136 137 1
711 190 191 1
712 1004 1025 1
713 788 809 1
714 811 820 1
715 1611 1612 1
716 818 1200 1
717 602 984 1
718 1646 1647 1
719 320 341 1
720 1420 1421 1
721 1766 1770 1
722 304 305 1
723 952 953 1
724 1777 1779 1
725 1027 1039 1
726 1297 1309 1
727 1748 1751 1
728 1532 1535 1
729 1645 1646 1
730 1573 1574 1
731 1411 1412 1
732 1405 1417 1
733 1423 1432 1
734 1744 1745 1
735 1528 1529 1
736 1083 1084 1
737 867 868 1
738 1141 1142 1
739 1485 1486 1
740 1205 1221 1
741 405 406 1
742 621 622 1
743 837 838 1
744 1283 1300 1
745 1712 1716 1
746 2 3 1
747 1190 1194 1
748 974 978 1
749 35 374 1
750 1570 1573 1
751 1637 1638 1
752 1604 1608 1
753 1377 1378 1
754 1161 1162 1
755 1723 1724 1
756 1507 1508 1
757 1712 1896 1
758 330 1750 1
759 1071 1072 1
760 1287 1288 1
761 10 11 1
762 41 1498 1
763 1675 1687 1
764 59 76 1
765 275 292 1
766 845 846 1
767 413 414 1
768 1493 1494 1
769 166 509 1
770 1079 1080 1
771 863 864 1
772 779 796 1
773 470 473 1
774 629 630 1
775 1084 1427 1
776 995 1012 1
777 13 15 1
778 175 177 1
779 268 269 1
780 367 368 1
781 865 874 1
782 1552 1555 1
783 1015 1016 1
784 1784 1900 1
785 1081 1090 1
786 799 800 1
787 1064 1065 1
788 1280 1281 1
789 1641 1642 1
790 1066 1069 1
791 1282 1285 1
792 44 45 1
793 394 395 1
794 940 960 1
795 812 813 1
796 355 358 1
797 380 381 1
798 1028 1029 1
799 399 400 1
800 391 394 1
801 794 1845 1
802 857 872 1
803 1663 1664 1
804 248 269 1
805 8 353 1
806 1541 1556 1
807 904 924 1
808 688 708 1
809 673 674 1
810 733 735 1
811 517 519 1
812 1723 1726 1
813 1507 1510 1
814 409 411 1
815 644 665 1
816 1489 1491 1
817 494 495 1
818 1417 1418 1
819 260 282 1
820 449 465 1
821 841 843 1
822 625 627 1
823 1335 1336 1
824 1628 1629 1
825 1618 1619 1
826 113 1570 1
827 477 478 1
828 1448 1793 1
829 1279 1291 1
830 1045 1054 1
831 1261 1270 1
832 76 96 1
833 391 393 1
834 1621 1633 1
835 557 558 1
836 341 342 1
837 134 516 1
838 1232 1254 1
839 1448 1470 1
840 517 520 1
841 733 736 1
842 272 1816 1
843 46 47 1
844 937 946 1
845 45 46 1
846 261 262 1
847 289 301 1
848 1075 1077 1
849 859 861 1
850 1204 1205 1
851 772 773 1
852 988 989 1
853 1592 1593 1
854 1484 1506 1
855 1145 1160 1
856 1072 1074 1
857 1501 1502 1
858 1669 1670 1
859 362 1821 1
860 848 1848 1
861 62 407 1
862 278 623 1
863 1079 1095 1
864 1696 1716 1
865 1357 1358 1
866 925 926 1
867 1136 1139 1
868 709 710 1
869 1525 1528 1
870 742 745 1
871 526 529 1
872 1741 1744 1
873 1658 1662 1
874 742 1122 1
875 526 906 1
876 542 546 1
877 629 645 1
878 413 429 1
879 1493 1509 1
880 692 714 1
881 908 930 1
882 1503 1504 1
883 679 680 1
884 1359 1360 1
885 711 712 1
886 927 928 1
887 147 148 1
888 1143 1144 1
889 93 94 1
890 201 202 1
891 856 857 1
892 1028 1032 1
893 380 384 1
894 812 816 1
895 300 1718 1
896 1603 1615 1
897 120 1538 1
898 467 806 1
899 805 806 1
900 1021 1022 1
901 373 374 1
902 1154 1865 1
903 220 240 1
904 805 808 1
905 1021 1024 1
906 373 376 1
907 1622 1625 1
908 16 17 1
909 1358 1740 1
910 178 179 1
911 1628 1650 1
912 194 1655 1
913 274 277 1
914 112 115 1
915 58 61 1
916 220 223 1
917 436 456 1
918 896 917 1
919 680 701 1
920 1505 1520 1
921 386 731 1
922 379 388 1
923 1795 1797 1
924 1414 1416 1
925 1550 1554 1
926 697 699 1
927 913 915 1
928 1129 1131 1
929 188 189 1
930 134 135 1
931 1639 1648 1
932 811 823 1
933 1361 1376 1
934 1244 1245 1
935 596 597 1
936 1460 1461 1
937 8 9 1
938 973 985 1
939 1189 1201 1
940 111 112 1
941 1413 1414 1
942 1486 1488 1
943 622 624 1
944 838 840 1
945 406 408 1
946 670 1050 1
947 755 1094 1
948 971 1310 1
949 539 878 1
950 1156 1159 1
951 1372 1375 1
952 787 788 1
953 1003 1004 1
954 944 945 1
955 1435 1436 1
956 544 564 1
957 44 66 1
958 1333 1342 1
959 478 479 1
960 923 940 1
961 685 697 1
962 1117 1129 1
963 901 913 1
964 503 842 1
965 38 41 1
966 634 1014 1
967 1078 1079 1
968 862 863 1
969 181 193 1
970 418 798 1
971 127 139 1
972 130 510 1
973 143 144 1
974 197 198 1
975 1549 1558 1
976 1435 1437 1
977 787 789 1
978 1003 1005 1
979 1472 1493 1
980 1011 1012 1
981 5 1462 1
982 1172 1175 1
983 308 311 1
984 956 959 1
985 1388 1391 1
986 89 105 1
987 1070 1071 1
988 481 482 1
989 1286 1287 1
990 42 1462 1
991 1780 1781 1
992 107 483 1
993 301 302 1
994 949 950 1
995 1774 1776 1
996 1768 1771 1
997 274 617 1
998 1138 1518 1
999 1034 1379 1
1000 921 922 1
1001 705 706 1
1002 1353 1354 1
1003 1736 1737 1
1004 1520 1521 1
1005 1694 1698 1
1006 1378 1379 1
1007 1162 1163 1
1008 1495 1507 1
1009 1582 1583 1
1010 1385 1401 1
1011 1169 1185 1
1012 691 692 1
1013 907 908 1
1014 1123 1124 1
1015 485 486 1
1016 94 474 1
1017 928 930 1
1018 47 1502 1
1019 1070 1092 1
1020 1360 1362 1
1021 712 714 1
1022 877 879 1
1023 1714 1717 1
1024 445 447 1
1025 1093 1095 1
1026 315 316 1
1027 1179 1180 1
1028 1395 1396 1
1029 1748 1752 1
1030 963 964 1
1031 1532 1536 1
1032 434 1825 1
1033 461 476 1
1034 92 96 1
1035 146 150 1
1036 200 204 1
1037 596 600 1
1038 1460 1464 1
1039 1244 1248 1
1040 267 1691 1
1041 487 496 1
1042 192 1610 1
1043 824 845 1
1044 608 629 1
1045 1318 1321 1
1046 38 39 1
1047 245 260 1
1048 1477 1486 1
1049 197 213 1
1050 499 501 1
1051 796 816 1
1052 1012 1032 1
1053 938 939 1
1054 1712 1715 1
1055 1576 1578 1
1056 440 441 1
1057 1147 1148 1
1058 656 657 1
1059 1304 1305 1
1060 1231 1232 1
1061 583 584 1
1062 1447 1448 1
1063 186 1606 1
1064 1129 1132 1
1065 48 1466 1
1066 1405 1414 1
1067 808 809 1
1068 1024 1025 1
1069 376 377 1
1070 1604 1890 1
1071 387 388 1
1072 383 400 1
1073 145 154 1
1074 91 100 1
1075 199 208 1
1076 536 557 1
1077 1250 1595 1
1078 326 327 1
1079 1585 1594 1
1080 856 858 1
1081 1471 1474 1
1082 1255 1258 1
1083 1039 1042 1
1084 1687 1688 1
1085 991 1000 1
1086 775 784 1
1087 179 518 1
1088 1682 1683 1
1089 1441 1450 1
1090 611 987 1
1091 827 1203 1
1092 457 458 1
1093 1105 1106 1
1094 889 890 1
1095 1381 1383 1
1096 1165 1167 1
1097 485 501 1
1098 499 502 1
1099 1277 1293 1
1100 377 716 1
1101 1772 1773 1
1102 1690 1691 1
1103 632 1836 1
1104 128 131 1
1105 182 185 1
1106 1072 1073 1
1107 1052 1074 1
1108 1033 1034 1
1109 364 707 1
1110 51 1475 1
1111 1246 1589 1
1112 683 1022 1
1113 95 112 1
1114 638 983 1
1115 323 699 1
1116 422 767 1
1117 854 1199 1
1118 112 132 1
1119 1471 1473 1
1120 1255 1257 1
1121 1039 1041 1
1122 98 480 1
1123 650 1837 1
1124 122 1583 1
1125 1773 1774 1
1126 299 1754 1
1127 221 1678 1
1128 1300 1320 1
1129 1144 1145 1
1130 1381 1384 1
1131 1138 1481 1
1132 1165 1168 1
1133 1766 1899 1
1134 244 245 1
1135 28 29 1
1136 82 83 1
1137 769 772 1
1138 153 154 1
1139 99 100 1
1140 207 208 1
1141 1201 1204 1
1142 985 988 1
1143 1247 1264 1
1144 1463 1480 1
1145 746 1128 1
1146 98 443 1
1147 530 912 1
1148 379 391 1
1149 647 1023 1
1150 431 807 1
1151 649 661 1
1152 2 5 1
1153 1726 1727 1
1154 1510 1511 1
1155 325 337 1
1156 1720 1721 1
1157 1299 1300 1
1158 651 652 1
1159 1102 1482 1
1160 435 436 1
1161 886 1266 1
1162 488 491 1
1163 1568 1572 1
1164 238 581 1
1165 487 499 1
1166 328 348 1
1167 661 663 1
1168 1457 1473 1
1169 1241 1257 1
1170 1575 1576 1
1171 1719 1720 1
1172 1695 1696 1
1173 237 238 1
1174 291 292 1
1175 75 76 1
1176 21 22 1
1177 1699 1700 1
1178 1315 1327 1
1179 2 6 1
1180 985 987 1
1181 769 771 1
1182 185 1642 1
1183 1201 1203 1
1184 56 60 1
1185 110 114 1
1186 272 276 1
1187 218 222 1
1188 1268 1290 1
1189 136 138 1
1190 190 192 1
1191 1765 1774 1
1192 1040 1061 1
1193 1256 1277 1
1194 339 1763 1
1195 1114 1115 1
1196 131 148 1
1197 682 683 1
1198 128 129 1
1199 398 401 1
1200 1061 1062 1
1201 1340 1341 1
1202 1277 1278 1
1203 182 183 1
1204 727 728 1
1205 511 512 1
1206 305 306 1
1207 953 954 1
1208 1393 1394 1
1209 961 962 1
1210 313 314 1
1211 1177 1178 1
1212 962 1307 1
1213 314 659 1
1214 202 205 1
1215 148 151 1
1216 94 97 1
1217 166 169 1
1218 614 615 1
1219 830 831 1
1220 1456 1457 1
1221 1240 1241 1
1222 592 593 1
1223 794 798 1
1224 179 555 1
1225 1010 1014 1
1226 1593 1594 1
1227 56 1804 1
1228 758 759 1
1229 494 839 1
1230 425 440 1
1231 641 656 1
1232 1289 1304 1
1233 1106 1451 1
1234 890 1235 1
1235 1609 1610 1
1236 32 53 1
1237 668 672 1
1238 202 582 1
1239 1468 1469 1
1240 1252 1253 1
1241 1190 1867 1
1242 388 389 1
1243 1036 1037 1
1244 1610 1611 1
1245 7 8 1
1246 571 572 1
1247 1219 1220 1
1248 1316 1317 1
1249 1057 1059 1
1250 1273 1275 1
1251 895 896 1
1252 1426 1446 1
1253 1111 1112 1
1254 1468 1470 1
1255 1252 1254 1
1256 253 265 1
1257 1036 1038 1
1258 1550 1887 1
1259 1109 1124 1
1260 893 908 1
1261 1673 1689 1
1262 388 390 1
1263 1291 1292 1
1264 643 644 1
1265 427 428 1
1266 1366 1367 1
1267 934 935 1
1268 718 719 1
1269 571 573 1
1270 1219 1221 1
1271 400 420 1
1272 311 328 1
1273 1070 1415 1
1274 101 116 1
1275 524 527 1
1276 740 743 1
1277 1178 1560 1
1278 1636 1637 1
1279 1444 1464 1
1280 1702 1704 1
1281 1658 1893 1
1282 827 1166 1
1283 550 551 1
1284 973 982 1
1285 1189 1198 1
1286 100 101 1
1287 208 209 1
1288 154 155 1
1289 334 335 1
1290 815 832 1
1291 1790 1791 1
1292 1766 1767 1
1293 1550 1551 1
1294 752 773 1
1295 556 557 1
1296 340 341 1
1297 1622 1626 1
1298 1190 1191 1
1299 49 52 1
1300 974 975 1
1301 222 1642 1
1302 1676 1679 1
1303 1774 1775 1
1304 979 980 1
1305 763 764 1
1306 1195 1196 1
1307 343 352 1
1308 1601 1602 1
1309 1745 1746 1
1310 1529 1530 1
1311 1358 1703 1
1312 351 352 1
1313 562 565 1
1314 1597 1600 1
1315 737 753 1
1316 521 537 1
1317 395 771 1
1318 1784 1788 1
1319 263 1718 1
1320 496 498 1
1321 1281 1282 1
1322 1065 1066 1
1323 1709 1725 1
1324 1139 1156 1
1325 1291 1294 1
1326 578 579 1
1327 643 646 1
1328 1226 1227 1
1329 427 430 1
1330 359 360 1
1331 742 1085 1
1332 526 869 1
1333 506 510 1
1334 164 168 1
1335 722 726 1
1336 836 858 1
1337 195 1619 1
1338 46 48 1
1339 164 1810 1
1340 1249 1250 1
1341 1465 1466 1
1342 382 762 1
1343 814 1194 1
1344 166 546 1
1345 23 40 1
1346 167 184 1
1347 1352 1356 1
1348 233 249 1
1349 269 285 1
1350 920 924 1
1351 1334 1337 1
1352 704 708 1
1353 1549 1561 1
1354 1234 1235 1
1355 586 587 1
1356 1450 1451 1
1357 14 1475 1
1358 719 735 1
1359 1759 1761 1
1360 1543 1545 1
1361 506 509 1
1362 722 725 1
1363 205 206 1
1364 97 98 1
1365 151 152 1
1366 1101 1102 1
1367 453 454 1
1368 1730 1897 1
1369 885 886 1
1370 1606 1609 1
1371 704 1840 1
1372 1737 1738 1
1373 1521 1522 1
1374 127 136 1
1375 181 190 1
1376 260 261 1
1377 242 243 1
1378 296 297 1
1379 507 508 1
1380 723 724 1
1381 26 27 1
1382 80 81 1
1383 616 619 1
1384 832 835 1
1385 497 512 1
1386 787 790 1
1387 850 1193 1
1388 1435 1438 1
1389 634 977 1
1390 1657 1666 1
1391 418 761 1
1392 1003 1006 1
1393 215 554 1
1394 1735 1736 1
1395 1519 1520 1
1396 49 50 1
1397 323 662 1
1398 1043 1419 1
1399 1799 1800 1
1400 769 770 1
1401 1201 1202 1
1402 985 986 1
1403 1355 1372 1
1404 1556 1557 1
1405 1118 1119 1
1406 902 903 1
1407 686 687 1
1408 377 378 1
1409 1025 1026 1
1410 809 810 1
1411 719 1058 1
1412 935 1274 1
1413 1444 1787 1
1414 1341 1342 1
1415 439 440 1
1416 1303 1304 1
1417 655 656 1
1418 844 845 1
1419 628 629 1
1420 412 413 1
1421 755 756 1
1422 1492 1493 1
1423 539 540 1
1424 881 882 1
1425 449 450 1
1426 1097 1098 1
1427 1136 1137 1
1428 722 1841 1
1429 209 224 1
1430 671 688 1
1431 1558 1560 1
1432 1629 1630 1
1433 611 950 1
1434 226 227 1
1435 280 281 1
1436 64 65 1
1437 337 340 1
1438 553 556 1
1439 297 298 1
1440 1034 1416 1
1441 118 119 1
1442 4 7 1
1443 1442 1446 1
1444 243 244 1
1445 27 28 1
1446 81 82 1
1447 1712 1713 1
1448 974 1855 1
1449 542 543 1
1450 193 196 1
1451 139 142 1
1452 1607 1624 1
1453 1724 1745 1
1454 1508 1529 1
1455 1585 1597 1
1456 577 586 1
1457 361 370 1
1458 1225 1234 1
1459 953 969 1
1460 475 476 1
1461 305 321 1
1462 1586 1590 1
1463 395 396 1
1464 1043 1044 1
1465 1259 1260 1
1466 1475 1476 1
1467 917 918 1
1468 1349 1350 1
1469 701 702 1
1470 494 876 1
1471 3 4 1
1472 747 748 1
1473 531 532 1
1474 1647 1648 1
1475 1322 1667 1
1476 463 464 1
1477 359 375 1
1478 337 339 1
1479 257 1714 1
1480 553 555 1
1481 751 753 1
1482 535 537 1
1483 919 928 1
1484 1351 1360 1
1485 1063 1075 1
1486 703 712 1
1487 1693 1702 1
1488 264 1682 1
1489 1592 1614 1
1490 899 1238 1
1491 1115 1454 1
1492 1175 1192 1
1493 959 976 1
1494 1159 1160 1
1495 1375 1376 1
1496 137 152 1
1497 236 1814 1
1498 53 69 1
1499 931 933 1
1500 1643 1660 1
1501 1363 1365 1
1502 715 717 1
1503 196 197 1
1504 142 143 1
1505 679 682 1
1506 1568 1571 1
1507 1262 1263 1
1508 1046 1047 1
1509 1478 1479 1
1510 669 670 1
1511 1594 1596 1
1512 1750 1753 1
1513 1534 1537 1
1514 922 1265 1
1515 650 654 1
1516 1298 1302 1
1517 813 814 1
1518 434 438 1
1519 381 382 1
1520 706 1049 1
1521 1029 1030 1
1522 325 334 1
1523 1687 1690 1
1524 575 914 1
1525 1031 1048 1
1526 1198 1200 1
1527 982 984 1
1528 766 768 1
1529 1378 1380 1
1530 1282 1662 1
1531 1162 1164 1
1532 1345 1347 1
1533 1783 1792 1
1534 4 24 1
1535 362 365 1
1536 724 1067 1
1537 541 553 1
1538 1197 1198 1
1539 559 568 1
1540 981 982 1
1541 765 766 1
1542 1063 1072 1
1543 1279 1288 1
1544 884 888 1
1545 452 456 1
1546 650 653 1
1547 1298 1301 1
1548 434 437 1
1549 1100 1104 1
1550 1318 1661 1
1551 1300 1303 1
1552 652 655 1
1553 346 349 1
1554 1214 1559 1
1555 193 194 1
1556 436 439 1
1557 139 140 1
1558 310 690 1
1559 917 933 1
1560 1349 1365 1
1561 701 717 1
1562 931 934 1
1563 1363 1366 1
1564 715 718 1
1565 874 876 1
1566 1025 1041 1
1567 1090 1092 1
1568 679 681 1
1569 1342 1343 1
1570 602 603 1
1571 1309 1310 1
1572 818 819 1
1573 1333 1345 1
1574 74 77 1
1575 20 23 1
1576 254 257 1
1577 236 239 1
1578 1403 1742 1
1579 290 293 1
1580 1187 1526 1
1581 37 49 1
1582 55 67 1
1583 721 733 1
1584 800 801 1
1585 368 369 1
1586 859 860 1
1587 1075 1076 1
1588 505 517 1
1589 1016 1017 1
1590 125 126 1
1591 233 234 1
1592 1583 1584 1
1593 566 948 1
1594 502 503 1
1595 287 288 1
1596 71 72 1
1597 656 678 1
1598 92 1806 1
1599 874 875 1
1600 1090 1091 1
1601 125 141 1
1602 1765 1777 1
1603 1423 1435 1
1604 728 1073 1
1605 1430 1431 1
1606 998 999 1
1607 782 783 1
1608 1696 1699 1
1609 1414 1415 1
1610 1691 1692 1
1611 902 906 1
1612 686 690 1
1613 1118 1122 1
1614 1384 1385 1
1615 1168 1169 1
1616 1702 1703 1
1617 331 332 1
1618 547 548 1
1619 1322 1704 1
1620 1751 1768 1
1621 1535 1552 1
1622 795 796 1
1623 1576 1577 1
1624 1616 1637 1
1625 1496 1499 1
1626 416 419 1
1627 373 375 1
1628 848 851 1
1629 805 807 1
1630 1021 1023 1
1631 1443 1444 1
1632 632 635 1
1633 1053 1054 1
1634 1269 1270 1
1635 851 868 1
1636 1669 1672 1
1637 992 1856 1
1638 1730 1734 1
1639 1514 1518 1
1640 637 638 1
1641 421 422 1
1642 853 854 1
1643 796 799 1
1644 1012 1015 1
1645 739 748 1
1646 523 532 1
1647 919 931 1
1648 1351 1363 1
1649 512 534 1
1650 728 750 1
1651 191 1646 1
1652 1192 1212 1
1653 703 715 1
1654 1786 1789 1
1655 859 862 1
1656 1075 1078 1
1657 458 840 1
1658 1106 1488 1
1659 674 1056 1
1660 1676 1680 1
1661 1555 1556 1
1662 739 751 1
1663 1064 1860 1
1664 523 535 1
1665 1795 1796 1
1666 319 321 1
1667 967 969 1
1668 1183 1185 1
1669 1402 1403 1
1670 317 332 1
1671 1186 1187 1
1672 322 323 1
1673 970 971 1
1674 1399 1401 1
1675 123 1547 1
1676 82 84 1
1677 614 1835 1
1678 244 246 1
1679 28 30 1
1680 1367 1706 1
1681 332 354 1
1682 670 673 1
1683 290 291 1
1684 236 237 1
1685 20 21 1
1686 254 255 1
1687 466 467 1
1688 74 75 1
1689 563 580 1
1690 1211 1228 1
1691 884 1850 1
1692 598 941 1
1693 382 725 1
1694 52 53 1
1695 745 746 1
1696 529 530 1
1697 1784 1787 1
1698 133 134 1
1699 187 188 1
1700 1295 1634 1
1701 595 604 1
1702 1651 1653 1
1703 253 262 1
1704 1370 1877 1
1705 932 953 1
1706 1371 1372 1
1707 1155 1156 1
1708 571 574 1
1709 1219 1222 1
1710 454 797 1
1711 1262 1871 1
1712 1102 1445 1
1713 303 1727 1
1714 301 303 1
1715 949 951 1
1716 1358 1359 1
1717 926 927 1
1718 710 711 1
1719 337 338 1
1720 553 554 1
1721 1142 1143 1
1722 471 472 1
1723 1367 1368 1
1724 1325 1340 1
1725 467 468 1
1726 1727 1728 1
1727 1511 1512 1
1728 847 859 1
1729 8 30 1
1730 1577 1592 1
1731 1030 1410 1
1732 1391 1408 1
1733 20 1802 1
1734 488 489 1
1735 17 33 1
1736 1205 1206 1
1737 989 990 1
1738 773 774 1
1739 1406 1409 1
1740 1425 1426 1
1741 1408 1411 1
1742 293 1750 1
1743 77 1534 1
1744 1499 1516 1
1745 1360 1361 1
1746 928 929 1
1747 712 713 1
1748 301 304 1
1749 949 952 1
1750 572 593 1
1751 1220 1241 1
1752 171 172 1
1753 1659 1660 1
1754 359 698 1
1755 1756 1758 1
1756 1540 1542 1
1757 1720 1722 1
1758 863 1239 1
1759 490 870 1
1760 1558 1559 1
1761 1717 1718 1
1762 84 1502 1
1763 757 769 1
1764 1280 1872 1
1765 1640 1892 1
1766 1792 1793 1
1767 1657 1669 1
1768 567 568 1
1769 1215 1216 1
1770 1424 1880 1
1771 271 283 1
1772 886 1229 1
1773 403 404 1
1774 1483 1484 1
1775 1267 1268 1
1776 1051 1052 1
1777 1171 1180 1
1778 307 316 1
1779 1387 1396 1
1780 955 964 1
1781 1061 1077 1
1782 1622 1891 1
1783 80 102 1
1784 1424 1427 1
1785 1588 1608 1
1786 729 730 1
1787 513 514 1
1788 39 40 1
1789 219 220 1
1790 1171 1183 1
1791 307 319 1
1792 955 967 1
1793 575 576 1
1794 1771 1772 1
1795 1223 1224 1
1796 57 58 1
1797 850 1230 1
1798 110 1807 1
1799 1387 1399 1
1800 958 1301 1
1801 310 653 1
1802 938 942 1
1803 368 713 1
1804 100 102 1
1805 208 210 1
1806 154 156 1
1807 11 1466 1
1808 1214 1596 1
1809 239 256 1
1810 784 786 1
1811 746 747 1
1812 530 531 1
1813 281 296 1
1814 1424 1428 1
1815 65 80 1
1816 1432 1434 1
1817 1000 1002 1
1818 256 276 1
1819 1316 1874 1
1820 1082 1861 1
1821 49 51 1
1822 887 904 1
1823 1103 1120 1
1824 863 1202 1
1825 1694 1697 1
1826 170 552 1
1827 938 941 1
1828 184 187 1
1829 130 133 1
1830 1088 1089 1
1831 872 873 1
1832 1016 1038 1
1833 1738 1740 1
1834 1522 1524 1
1835 1678 1681 1
1836 1403 1779 1
1837 1245 1246 1
1838 597 598 1
1839 1461 1462 1
1840 1007 1346 1
1841 1713 1714 1
1842 1259 1598 1
1843 314 696 1
1844 98 99 1
1845 152 153 1
1846 206 207 1
1847 826 827 1
1848 610 611 1
1849 1442 1881 1
1850 615 616 1
1851 831 832 1
1852 242 587 1
1853 674 1019 1
1854 549 550 1
1855 333 334 1
1856 1367 1743 1
1857 1054 1056 1
1858 1270 1272 1
1859 1544 1565 1
1860 1084 1087 1
1861 868 871 1
1862 1426 1429 1
1863 1430 1775 1
1864 562 942 1
1865 22 365 1
1866 668 669 1
1867 1444 1447 1
1868 1430 1452 1
1869 823 824 1
1870 607 608 1
1871 860 881 1
1872 152 174 1
1873 593 609 1
1874 560 563 1
1875 469 478 1
1876 491 508 1
1877 890 1272 1
1878 470 471 1
1879 235 247 1
1880 19 31 1
1881 73 85 1
1882 1369 1381 1
1883 1153 1165 1
1884 1232 1233 1
1885 584 585 1
1886 1448 1449 1
1887 1181 1196 1
1888 965 980 1
1889 161 162 1
1890 215 216 1
1891 1126 1128 1
1892 910 912 1
1893 694 696 1
1894 107 108 1
1895 251 252 1
1896 89 90 1
1897 1150 1151 1
1898 35 36 1
1899 741 742 1
1900 525 526 1
1901 1390 1770 1
1902 548 570 1
1903 1313 1314 1
1904 560 564 1
1905 697 698 1
1906 913 914 1
1907 1129 1130 1
1908 488 1828 1
1909 1693 1705 1
1910 1561 1564 1
1911 1705 1708 1
1912 441 442 1
1913 657 658 1
1914 1305 1306 1
1915 1322 1323 1
1916 1111 1114 1
1917 397 409 1
1918 895 898 1
1919 380 383 1
1920 812 815 1
1921 1028 1031 1
1922 1192 1195 1
1923 128 1808 1
1924 976 979 1
1925 760 763 1
1926 1246 1626 1
1927 994 1337 1
1928 481 484 1
1929 541 550 1
1930 1136 1864 1
1931 1243 1252 1
1932 1459 1468 1
1933 575 951 1
1934 1622 1623 1
1935 1568 1569 1
1936 596 1834 1
1937 1324 1326 1
1938 302 1763 1
1939 158 1619 1
1940 265 268 1
1941 86 1547 1
1942 1504 1506 1
1943 595 607 1
1944 247 250 1
1945 31 34 1
1946 85 88 1
1947 156 1574 1
1948 1679 1696 1
1949 363 364 1
1950 1151 1527 1
1951 1421 1437 1
1952 109 121 1
1953 217 229 1
1954 1120 1123 1
1955 688 691 1
1956 904 907 1
1957 58 438 1
1958 274 654 1
1959 1642 1645 1
1960 895 897 1
1961 1111 1113 1
1962 794 795 1
1963 1442 1443 1
1964 1010 1011 1
1965 883 892 1
1966 1099 1108 1
1967 404 405 1
1968 451 460 1
1969 242 624 1
1970 26 408 1
1971 1318 1698 1
1972 182 1811 1
1973 614 618 1
1974 64 66 1
1975 226 228 1
1976 1135 1144 1
1977 668 1838 1
1978 280 282 1
1979 1478 1883 1
1980 118 120 1
1981 830 834 1
1982 817 818 1
1983 454 457 1
1984 886 889 1
1985 1102 1105 1
1986 589 590 1
1987 971 1347 1
1988 962 963 1
1989 1453 1454 1
1990 203 220 1
1991 314 315 1
1992 1237 1238 1
1993 1178 1179 1
1994 1394 1395 1
1995 173 188 1
1996 40 60 1
1997 452 1826 1
1998 920 1852 1
1999 1637 1653 1
2000 1237 1240 1
2001 589 592 1
2002 775 787 1
2003 1453 1456 1
2004 193 195 1
2005 991 1003 1
2006 139 141 1
2007 580 600 1
2008 1228 1248 1
2009 1370 1371 1
2010 250 251 1
2011 34 35 1
2012 88 89 1
2013 1154 1155 1
2014 1615 1617 1
2015 259 260 1
2016 499 500 1
2017 1345 1348 1
2018 1132 1133 1
2019 71 447 1
2020 791 1167 1
2021 1007 1383 1
2022 143 519 1
2023 37 46 1
2024 55 64 1
2025 217 226 1
2026 271 280 1
2027 109 118 1
2028 838 839 1
2029 1486 1487 1
2030 622 623 1
2031 224 225 1
2032 62 63 1
2033 278 279 1
2034 116 117 1
2035 406 407 1
2036 1460 1882 1
2037 1066 1409 1
2038 1729 1738 1
2039 1513 1522 1
2040 1759 1760 1
2041 1543 1544 1
2042 1694 1895 1
2043 1496 1500 1
2044 416 420 1
2045 848 852 1
2046 632 636 1
2047 327 328 1
2048 247 248 1
2049 543 544 1
2050 85 86 1
2051 265 266 1
2052 922 925 1
2053 1210 1213 1
2054 706 709 1
2055 1354 1357 1
2056 31 32 1
2057 1331 1707 1
2058 508 511 1
2059 724 727 1
2060 445 448 1
2061 1093 1096 1
2062 877 880 1
2063 1316 1319 1
2064 845 861 1
2065 442 444 1
2066 658 660 1
2067 1306 1308 1
2068 1604 1605 1
2069 1457 1458 1
2070 593 594 1
2071 1241 1242 1
2072 1298 1873 1
2073 92 95 1
2074 200 203 1
2075 146 149 1
2076 1282 1625 1
2077 957 958 1
2078 1304 1326 1
2079 1173 1174 1
2080 309 310 1
2081 1389 1390 1
2082 1495 1504 1
2083 329 1786 1
2084 686 1839 1
2085 743 760 1
2086 442 443 1
2087 658 659 1
2088 1306 1307 1
2089 1030 1373 1
2090 814 1157 1
2091 455 472 1
2092 431 770 1
2093 647 986 1
2094 1630 1632 1
2095 1460 1463 1
2096 1244 1247 1
2097 596 599 1
2098 800 822 1
2099 793 805 1
2100 1009 1021 1
2101 496 497 1
2102 1 10 1
2103 470 474 1
2104 78 1498 1
2105 1784 1785 1
2106 1612 1614 1
2107 730 731 1
2108 514 515 1
2109 922 1302 1
2110 1760 1781 1
2111 1064 1067 1
2112 1280 1283 1
2113 920 923 1
2114 1352 1355 1
2115 704 707 1
2116 1234 1236 1
2117 586 588 1
2118 1450 1452 1
2119 1339 1340 1
2120 1640 1644 1
2121 1223 1599 1
2122 1324 1325 1
2123 1135 1147 1
2124 944 966 1
2125 1312 1313 1
2126 1408 1428 1
2127 1309 1311 1
2128 116 138 1
2129 344 347 1
2130 956 957 1
2131 1172 1173 1
2132 308 309 1
2133 1388 1389 1
2134 1791 1792 1
2135 1767 1768 1
2136 667 676 1
2137 1551 1552 1
2138 165 166 1
2139 683 1059 1
2140 899 1275 1
2141 638 1020 1
2142 422 804 1
2143 1097 1436 1
2144 1397 1412 1
2145 956 1854 1
2146 1457 1796 1
2147 1736 1758 1
2148 1520 1542 1
2149 1323 1324 1
2150 650 651 1
2151 1298 1299 1
2152 352 354 1
2153 92 93 1
2154 434 435 1
2155 344 348 1
2156 146 147 1
2157 200 201 1
2158 943 944 1
2159 184 204 1
2160 1385 1386 1
2161 1174 1517 1
2162 1390 1733 1
2163 1169 1170 1
2164 364 384 1
2165 214 215 1
2166 106 107 1
2167 160 161 1
2168 463 466 1
2169 829 841 1
2170 266 1727 1
2171 613 625 1
2172 398 399 1
2173 40 43 1
2174 1666 1668 1
2175 1043 1382 1
2176 757 766 1
2177 146 1809 1
2178 578 582 1
2179 1226 1230 1
2180 819 820 1
2181 603 604 1
2182 170 171 1
2183 1364 1385 1
2184 500 521 1
2185 1406 1879 1
2186 710 1055 1
2187 1243 1255 1
2188 1459 1471 1
2189 926 1271 1
2190 1088 1433 1
2191 1561 1562 1
2192 1705 1706 1
2193 1681 1682 1
2194 292 312 1
2195 349 350 1
2196 830 1847 1
2197 1100 1101 1
2198 884 885 1
2199 452 453 1
2200 470 1827 1
2201 661 664 1
2202 1412 1413 1
2203 463 465 1
2204 776 779 1
2205 992 995 1
2206 1327 1328 1
2207 836 837 1
2208 620 621 1
2209 1531 1540 1
2210 866 1849 1
2211 110 113 1
2212 935 936 1
2213 272 275 1
2214 56 59 1
2215 218 221 1
2216 163 175 1
2217 1747 1756 1
2218 38 1803 1
2219 1087 1088 1
2220 871 872 1
2221 179 180 1
2222 17 18 1
2223 389 404 1
2224 385 386 1
2225 1664 1686 1
2226 83 1538 1
2227 776 780 1
2228 992 996 1
2229 358 359 1
2230 343 355 1
2231 1633 1636 1
2232 1639 1651 1
2233 1756 1757 1
2234 1540 1541 1
2235 326 329 1
2236 202 545 1
2237 1424 1425 1
2238 149 1606 1
2239 206 588 1
2240 935 1311 1
2241 1588 1591 1
2242 982 983 1
2243 1763 1764 1
2244 766 767 1
2245 1547 1548 1
2246 1198 1199 1
2247 791 1130 1
2248 1561 1563 1
2249 1705 1707 1
2250 1081 1093 1
2251 865 877 1
2252 1525 1527 1
2253 1741 1743 1
2254 26 371 1
2255 1226 1869 1
2256 1207 1216 1
2257 1624 1644 1
2258 758 1843 1
2259 341 357 1
2260 778 781 1
2261 994 997 1
2262 1133 1134 1
2263 350 372 1
2264 902 1851 1
2265 1658 1661 1
2266 1160 1182 1
2267 1376 1398 1
2268 1781 1782 1
2269 625 628 1
2270 841 844 1
2271 409 412 1
2272 1354 1697 1
2273 1489 1492 1
2274 1331 1670 1
2275 1586 1889 1
2276 945 946 1
2277 855 856 1
2278 639 640 1
2279 423 424 1
2280 782 1164 1
2281 998 1380 1
2282 404 426 1
2283 1262 1266 1
2284 1478 1482 1
2285 1046 1050 1
2286 440 462 1
2287 1210 1553 1
2288 1412 1434 1
2289 527 544 1
2290 1330 1331 1
2291 755 1131 1
2292 272 273 1
2293 218 219 1
2294 56 57 1
2295 35 411 1
2296 251 627 1
2297 539 915 1
2298 110 111 1
2299 802 803 1
2300 370 371 1
2301 1018 1019 1
2302 238 618 1
2303 124 125 1
2304 232 233 1
2305 286 287 1
2306 70 71 1
2307 336 1754 1
2308 277 278 1
2309 43 44 1
2310 115 116 1
2311 61 62 1
2312 368 390 1
2313 223 224 1
2314 785 800 1
2315 1001 1016 1
2316 58 401 1
2317 1082 1086 1
2318 866 870 1
2319 9 10 1
2320 362 366 1
2321 1579 1581 1
2322 1569 1570 1
2323 748 749 1
2324 532 533 1
2325 19 28 1
2326 289 298 1
2327 235 244 1
2328 73 82 1
2329 939 940 1
2330 542 1831 1
2331 1142 1487 1
2332 400 403 1
2333 1264 1267 1
2334 1048 1051 1
2335 1480 1483 1
2336 823 826 1
2337 607 610 1
2338 130 473 1
2339 1082 1085 1
2340 820 821 1
2341 866 869 1
2342 604 605 1
2343 1658 1659 1
2344 989 1005 1
2345 773 789 1
2346 1407 1408 1
2347 490 493 1
2348 748 750 1
2349 532 534 1
2350 2 1801 1
2351 1133 1149 1
2352 224 246 1
2353 1466 1467 1
2354 1034 1035 1
2355 1250 1251 1
2356 1748 1749 1
2357 1532 1533 1
2358 1151 1490 1
2359 1594 1595 1
2360 1115 1491 1
2361 820 822 1
2362 164 167 1
2363 604 606 1
2364 1331 1332 1
2365 478 480 1
2366 1100 1862 1
2367 1480 1500 1
2368 784 785 1
2369 1432 1433 1
2370 1000 1001 1
2371 1649 1664 1
2372 392 413 1
2373 1060 1061 1
2374 1276 1277 1
2375 1118 1863 1
2376 155 1610 1
2377 74 1805 1
2378 823 825 1
2379 607 609 1
2380 1783 1795 1
2381 15 1799 1
2382 758 761 1
2383 776 777 1
2384 777 778 1
2385 1749 1750 1
2386 1208 1209 1
2387 544 547 1
2388 1209 1210 1
2389 992 993 1
2390 993 994 1
2391 328 331 1
2392 1533 1534 1
2393 287 663 1
2394 262 263 1
2395 721 730 1
2396 505 514 1
2397 290 1817 1
2398 1539 1540 1
2399 1587 1588 1
2400 1755 1756 1
