@<TRIPOS>MOLECULE
*****
 4 3 0 0 0
SMALL
GASTEIGER

@<TRIPOS>ATOM
      1 C1         -1.7501    1.6619    0.0000 C.3     1  LIG1       -0.0681
      2 H1         -0.6801    1.6619    0.0000 H       1  LIG1        0.0227
      3 H2         -2.1067    2.4310    0.6528 H       1  LIG1        0.0227
      4 H3         -2.1067    1.8427   -0.9925 H       1  LIG1        0.0227
@<TRIPOS>BOND
     1     1     2    1
     2     1     3    1
     3     1     4    1
