@<TRIPOS>MOLECULE
RES
20 19 1 0 1
SMALL
NO_CHARGES
@<TRIPOS>CRYSIN
   10.2630     8.5780    11.7540    90.0000    90.0000    90.0000  1  1
@<TRIPOS>ATOM
       1 C            5.8820     2.3760     3.3610 C             1 RES     
       2 H            6.2910     3.2960     3.7800 H             1 RES     
       3 H            4.9110     2.2380     3.8400 H             1 RES     
       4 C            5.6870     2.5690     1.8470 C             1 RES     
       5 H            6.6520     2.5250     1.3390 H             1 RES     
       6 H            5.3020     3.5730     1.6630 H             1 RES     
       7 C            4.7300     1.5470     1.2180 C             1 RES     
       8 H            3.7410     1.6000     1.6740 H             1 RES     
       9 H            5.0990     0.5280     1.3340 H             1 RES     
      10 H            4.6110     1.7350     0.1500 H             1 RES     
      11 C            6.8080     1.1970     3.7110 C             1 RES     
      12 H            6.3890     0.2760     3.3040 H             1 RES     
      13 H            7.7730     1.3260     3.2190 H             1 RES     
      14 C            7.0190     1.0100     5.2240 C             1 RES     
      15 H            6.0630     1.0860     5.7450 H             1 RES     
      16 H            7.3760    -0.0050     5.4090 H             1 RES     
      17 C            8.0170     2.0050     5.8320 C             1 RES     
      18 H            8.1260     1.8370     6.9040 H             1 RES     
      19 H            7.6920     3.0360     5.6920 H             1 RES     
      20 H            9.0040     1.8990     5.3810 H             1 RES     
@<TRIPOS>BOND
       1        6        4 1
       2        7        4 1
       3       12       11 1
       4        3        1 1
       5       11        1 1
       6       14       17 1
       7        4        1 1
       8       10        7 1
       9        5        4 1
      10       16       14 1
      11       13       11 1
      12        8        7 1
      13       15       14 1
      14       20       17 1
      15        2        1 1
      16       18       17 1
      17       19       17 1
      18        9        7 1
      19       14       11 1
@<TRIPOS>SUBSTRUCTURE
       1 RES             1 RESIDUE    0 **** ROOT      0
